version 3
run General-0-20241030-15:34:09-20048
attr configname General
attr datetime 20241030-15:34:09
attr datetimef 20241030-153409
attr experiment General
attr inifile "D:\\jobSimQt\\project/Parameters.ini"
attr iterationvars ""
attr iterationvarsd ""
attr iterationvarsf ""
attr measurement ""
attr network TargetNetwork
attr processid 20048
attr repetition 0
attr replication #0
attr resultdir results
attr runnumber 0
attr seedset 0
config network TargetNetwork
config sim-time-limit 1.0s
config *.configurator.config "xml(\"<config><interface hosts='**' address='192.x.x.x' netmask='255.x.x.x'/></config>\")"
config *.dds_cpu.numApps 1
config *.dds_cpu.app[0].typename DDSPublishApp
config *.dds_cpu.app[0].io.receiveBroadcast true
config *.dds_cpu.ipv4.ip.limitedBroadcast true
config *.dds_cpu.app[0].sink.typename ""
config *.dds_cpu.app[0].io.publish "\"Topic1\""
config *.dds_cpu.app[0].io.destPort 1000
config *.dds_cpu.app[0].source.packetLength 5000B
config *.dds_cpu.app[0].source.productionInterval exponential(200ms)
config *.dds_cpu2.numApps 1
config *.dds_cpu2.app[0].typename DDSPublishApp
config *.dds_cpu2.app[0].io.receiveBroadcast true
config *.dds_cpu2.ipv4.ip.limitedBroadcast true
config *.dds_cpu2.app[0].sink.typename ""
config *.dds_cpu2.app[0].io.publish "\"Topic2\""
config *.dds_cpu2.app[0].io.destPort 1001
config *.dds_cpu2.app[0].source.packetLength 1000B
config *.dds_cpu2.app[0].source.productionInterval exponential(200ms)
config *.dds_cpu3.numApps 1
config *.dds_cpu3.app[0].typename DDSSubscribeApp
config *.dds_cpu3.app[0].io.localPort 1000
config *.dds_cpu3.app[0].source.subscribe "\"Topic1@1000\""
config *.dds_cpu3.app[0].source.packetLength 20B
config *.dds_cpu3.ipv4.ip.limitedBroadcast true
config *.dds_cpu3.app[0].sink.flowName "\"default1\""
config *.dds_cpu4.numApps 1
config *.dds_cpu4.app[0].typename DDSSubscribeApp
config *.dds_cpu4.app[0].io.localPort 1001
config *.dds_cpu4.app[0].source.subscribe "\"Topic2@1001\""
config *.dds_cpu4.app[0].source.packetLength 20B
config *.dds_cpu4.ipv4.ip.limitedBroadcast true
config *.dds_cpu4.app[0].sink.flowName "\"default2\""
config *.dds_cpu5.numApps 1
config *.dds_cpu5.app[0].typename DDSSubscribeApp
config *.dds_cpu5.app[0].io.localPort 1001
config *.dds_cpu5.app[0].source.subscribe "\"Topic2@1001\""
config *.dds_cpu5.app[0].source.packetLength 20B
config *.dds_cpu5.ipv4.ip.limitedBroadcast true
config *.dds_cpu5.app[0].sink.flowName "\"default3\""
config *.dds_switch.ethernet.typename EthernetLayer
config *.dds_switch.eth[*].typename LayeredEthernetInterface
config *.dds_switch.eth[*].bitrate 100Mbps
config *.dds_switch2.ethernet.typename EthernetLayer
config *.dds_switch2.eth[*].typename LayeredEthernetInterface
config *.dds_switch2.eth[*].bitrate 100Mbps

par TargetNetwork.dds_cpu.ethg$o[0].channel typename "\"ned.DatarateChannel\""
par TargetNetwork.dds_cpu.ethg$o[0].channel disabled false
attr mutable ""
par TargetNetwork.dds_cpu.ethg$o[0].channel delay 0s
attr mutable ""
attr unit s
par TargetNetwork.dds_cpu.ethg$o[0].channel datarate 1e+08bps
attr mutable ""
attr unit bps
par TargetNetwork.dds_cpu.ethg$o[0].channel ber 0
attr mutable ""
par TargetNetwork.dds_cpu.ethg$o[0].channel per 0
attr mutable ""
par TargetNetwork.dds_switch.ethg$o[0].channel typename "\"ned.DatarateChannel\""
par TargetNetwork.dds_switch.ethg$o[0].channel disabled false
attr mutable ""
par TargetNetwork.dds_switch.ethg$o[0].channel delay 0s
attr mutable ""
attr unit s
par TargetNetwork.dds_switch.ethg$o[0].channel datarate 1e+08bps
attr mutable ""
attr unit bps
par TargetNetwork.dds_switch.ethg$o[0].channel ber 0
attr mutable ""
par TargetNetwork.dds_switch.ethg$o[0].channel per 0
attr mutable ""
par TargetNetwork.dds_cpu2.ethg$o[0].channel typename "\"ned.DatarateChannel\""
par TargetNetwork.dds_cpu2.ethg$o[0].channel disabled false
attr mutable ""
par TargetNetwork.dds_cpu2.ethg$o[0].channel delay 0s
attr mutable ""
attr unit s
par TargetNetwork.dds_cpu2.ethg$o[0].channel datarate 1e+08bps
attr mutable ""
attr unit bps
par TargetNetwork.dds_cpu2.ethg$o[0].channel ber 0
attr mutable ""
par TargetNetwork.dds_cpu2.ethg$o[0].channel per 0
attr mutable ""
par TargetNetwork.dds_switch2.ethg$o[0].channel typename "\"ned.DatarateChannel\""
par TargetNetwork.dds_switch2.ethg$o[0].channel disabled false
attr mutable ""
par TargetNetwork.dds_switch2.ethg$o[0].channel delay 0s
attr mutable ""
attr unit s
par TargetNetwork.dds_switch2.ethg$o[0].channel datarate 1e+08bps
attr mutable ""
attr unit bps
par TargetNetwork.dds_switch2.ethg$o[0].channel ber 0
attr mutable ""
par TargetNetwork.dds_switch2.ethg$o[0].channel per 0
attr mutable ""
par TargetNetwork.dds_switch.ethg$o[1].channel typename "\"ned.DatarateChannel\""
par TargetNetwork.dds_switch.ethg$o[1].channel disabled false
attr mutable ""
par TargetNetwork.dds_switch.ethg$o[1].channel delay 0s
attr mutable ""
attr unit s
par TargetNetwork.dds_switch.ethg$o[1].channel datarate 1e+08bps
attr mutable ""
attr unit bps
par TargetNetwork.dds_switch.ethg$o[1].channel ber 0
attr mutable ""
par TargetNetwork.dds_switch.ethg$o[1].channel per 0
attr mutable ""
par TargetNetwork.dds_cpu3.ethg$o[0].channel typename "\"ned.DatarateChannel\""
par TargetNetwork.dds_cpu3.ethg$o[0].channel disabled false
attr mutable ""
par TargetNetwork.dds_cpu3.ethg$o[0].channel delay 0s
attr mutable ""
attr unit s
par TargetNetwork.dds_cpu3.ethg$o[0].channel datarate 1e+08bps
attr mutable ""
attr unit bps
par TargetNetwork.dds_cpu3.ethg$o[0].channel ber 0
attr mutable ""
par TargetNetwork.dds_cpu3.ethg$o[0].channel per 0
attr mutable ""
par TargetNetwork.dds_switch.ethg$o[2].channel typename "\"ned.DatarateChannel\""
par TargetNetwork.dds_switch.ethg$o[2].channel disabled false
attr mutable ""
par TargetNetwork.dds_switch.ethg$o[2].channel delay 0s
attr mutable ""
attr unit s
par TargetNetwork.dds_switch.ethg$o[2].channel datarate 1e+08bps
attr mutable ""
attr unit bps
par TargetNetwork.dds_switch.ethg$o[2].channel ber 0
attr mutable ""
par TargetNetwork.dds_switch.ethg$o[2].channel per 0
attr mutable ""
par TargetNetwork.dds_cpu4.ethg$o[0].channel typename "\"ned.DatarateChannel\""
par TargetNetwork.dds_cpu4.ethg$o[0].channel disabled false
attr mutable ""
par TargetNetwork.dds_cpu4.ethg$o[0].channel delay 0s
attr mutable ""
attr unit s
par TargetNetwork.dds_cpu4.ethg$o[0].channel datarate 1e+08bps
attr mutable ""
attr unit bps
par TargetNetwork.dds_cpu4.ethg$o[0].channel ber 0
attr mutable ""
par TargetNetwork.dds_cpu4.ethg$o[0].channel per 0
attr mutable ""
par TargetNetwork.dds_switch.ethg$o[3].channel typename "\"ned.DatarateChannel\""
par TargetNetwork.dds_switch.ethg$o[3].channel disabled false
attr mutable ""
par TargetNetwork.dds_switch.ethg$o[3].channel delay 0s
attr mutable ""
attr unit s
par TargetNetwork.dds_switch.ethg$o[3].channel datarate 1e+08bps
attr mutable ""
attr unit bps
par TargetNetwork.dds_switch.ethg$o[3].channel ber 0
attr mutable ""
par TargetNetwork.dds_switch.ethg$o[3].channel per 0
attr mutable ""
par TargetNetwork.dds_cpu5.ethg$o[0].channel typename "\"ned.DatarateChannel\""
par TargetNetwork.dds_cpu5.ethg$o[0].channel disabled false
attr mutable ""
par TargetNetwork.dds_cpu5.ethg$o[0].channel delay 0s
attr mutable ""
attr unit s
par TargetNetwork.dds_cpu5.ethg$o[0].channel datarate 1e+08bps
attr mutable ""
attr unit bps
par TargetNetwork.dds_cpu5.ethg$o[0].channel ber 0
attr mutable ""
par TargetNetwork.dds_cpu5.ethg$o[0].channel per 0
attr mutable ""
par TargetNetwork.dds_switch2.ethg$o[1].channel typename "\"ned.DatarateChannel\""
par TargetNetwork.dds_switch2.ethg$o[1].channel disabled false
attr mutable ""
par TargetNetwork.dds_switch2.ethg$o[1].channel delay 0s
attr mutable ""
attr unit s
par TargetNetwork.dds_switch2.ethg$o[1].channel datarate 1e+08bps
attr mutable ""
attr unit bps
par TargetNetwork.dds_switch2.ethg$o[1].channel ber 0
attr mutable ""
par TargetNetwork.dds_switch2.ethg$o[1].channel per 0
attr mutable ""
par TargetNetwork.dds_cpu3.ethg$o[1].channel typename "\"ned.DatarateChannel\""
par TargetNetwork.dds_cpu3.ethg$o[1].channel disabled false
attr mutable ""
par TargetNetwork.dds_cpu3.ethg$o[1].channel delay 0s
attr mutable ""
attr unit s
par TargetNetwork.dds_cpu3.ethg$o[1].channel datarate 1e+08bps
attr mutable ""
attr unit bps
par TargetNetwork.dds_cpu3.ethg$o[1].channel ber 0
attr mutable ""
par TargetNetwork.dds_cpu3.ethg$o[1].channel per 0
attr mutable ""
par TargetNetwork.dds_switch2.ethg$o[2].channel typename "\"ned.DatarateChannel\""
par TargetNetwork.dds_switch2.ethg$o[2].channel disabled false
attr mutable ""
par TargetNetwork.dds_switch2.ethg$o[2].channel delay 0s
attr mutable ""
attr unit s
par TargetNetwork.dds_switch2.ethg$o[2].channel datarate 1e+08bps
attr mutable ""
attr unit bps
par TargetNetwork.dds_switch2.ethg$o[2].channel ber 0
attr mutable ""
par TargetNetwork.dds_switch2.ethg$o[2].channel per 0
attr mutable ""
par TargetNetwork.dds_cpu4.ethg$o[1].channel typename "\"ned.DatarateChannel\""
par TargetNetwork.dds_cpu4.ethg$o[1].channel disabled false
attr mutable ""
par TargetNetwork.dds_cpu4.ethg$o[1].channel delay 0s
attr mutable ""
attr unit s
par TargetNetwork.dds_cpu4.ethg$o[1].channel datarate 1e+08bps
attr mutable ""
attr unit bps
par TargetNetwork.dds_cpu4.ethg$o[1].channel ber 0
attr mutable ""
par TargetNetwork.dds_cpu4.ethg$o[1].channel per 0
attr mutable ""
par TargetNetwork.dds_switch2.ethg$o[3].channel typename "\"ned.DatarateChannel\""
par TargetNetwork.dds_switch2.ethg$o[3].channel disabled false
attr mutable ""
par TargetNetwork.dds_switch2.ethg$o[3].channel delay 0s
attr mutable ""
attr unit s
par TargetNetwork.dds_switch2.ethg$o[3].channel datarate 1e+08bps
attr mutable ""
attr unit bps
par TargetNetwork.dds_switch2.ethg$o[3].channel ber 0
attr mutable ""
par TargetNetwork.dds_switch2.ethg$o[3].channel per 0
attr mutable ""
par TargetNetwork.dds_cpu5.ethg$o[1].channel typename "\"ned.DatarateChannel\""
par TargetNetwork.dds_cpu5.ethg$o[1].channel disabled false
attr mutable ""
par TargetNetwork.dds_cpu5.ethg$o[1].channel delay 0s
attr mutable ""
attr unit s
par TargetNetwork.dds_cpu5.ethg$o[1].channel datarate 1e+08bps
attr mutable ""
attr unit bps
par TargetNetwork.dds_cpu5.ethg$o[1].channel ber 0
attr mutable ""
par TargetNetwork.dds_cpu5.ethg$o[1].channel per 0
attr mutable ""
par TargetNetwork.visualizer.sceneVisualizer typename "\"inet.visualizer.canvas.scene.SceneCanvasVisualizer\""
par TargetNetwork.visualizer.sceneVisualizer visualizationTargetModule "\"^.^\""
par TargetNetwork.visualizer.sceneVisualizer visualizationSubjectModule "\"^.^\""
par TargetNetwork.visualizer.sceneVisualizer tags "\"\""
par TargetNetwork.visualizer.sceneVisualizer physicalEnvironmentModule "\"physicalEnvironment\""
par TargetNetwork.visualizer.sceneVisualizer networkNodeVisualizerModule "\"^.networkNodeVisualizer\""
par TargetNetwork.visualizer.sceneVisualizer axisLength "nan m"
attr mutable ""
attr unit m
par TargetNetwork.visualizer.sceneVisualizer animationSpeed 0
par TargetNetwork.visualizer.sceneVisualizer sceneMinX "nan m"
attr unit m
par TargetNetwork.visualizer.sceneVisualizer sceneMinY "nan m"
attr unit m
par TargetNetwork.visualizer.sceneVisualizer sceneMinZ "nan m"
attr unit m
par TargetNetwork.visualizer.sceneVisualizer sceneMaxX "nan m"
attr unit m
par TargetNetwork.visualizer.sceneVisualizer sceneMaxY "nan m"
attr unit m
par TargetNetwork.visualizer.sceneVisualizer sceneMaxZ "nan m"
attr unit m
par TargetNetwork.visualizer.sceneVisualizer zIndex 0
par TargetNetwork.visualizer.sceneVisualizer viewAngle "\"x right y down z out\""
attr mutable ""
par TargetNetwork.visualizer.sceneVisualizer viewScale "\"1 1\""
attr mutable ""
par TargetNetwork.visualizer.sceneVisualizer viewTranslation "\"0 0\""
attr mutable ""
par TargetNetwork.visualizer.sceneVisualizer descriptionFigure "\"\""
par TargetNetwork.visualizer.physicalEnvironmentVisualizer typename "\"inet.visualizer.canvas.environment.PhysicalEnvironmentCanvasVisualizer\""
par TargetNetwork.visualizer.physicalEnvironmentVisualizer visualizationTargetModule "\"^.^\""
par TargetNetwork.visualizer.physicalEnvironmentVisualizer visualizationSubjectModule "\"^.^\""
par TargetNetwork.visualizer.physicalEnvironmentVisualizer tags "\"\""
par TargetNetwork.visualizer.physicalEnvironmentVisualizer physicalEnvironmentModule "\"physicalEnvironment\""
par TargetNetwork.visualizer.physicalEnvironmentVisualizer displayObjects true
par TargetNetwork.visualizer.physicalEnvironmentVisualizer zIndex 0
par TargetNetwork.visualizer.networkNodeVisualizer typename "\"inet.visualizer.canvas.scene.NetworkNodeCanvasVisualizer\""
par TargetNetwork.visualizer.networkNodeVisualizer visualizationTargetModule "\"^.^\""
par TargetNetwork.visualizer.networkNodeVisualizer visualizationSubjectModule "\"^.^\""
par TargetNetwork.visualizer.networkNodeVisualizer tags "\"\""
par TargetNetwork.visualizer.networkNodeVisualizer nodeFilter "\"*\""
attr mutable ""
par TargetNetwork.visualizer.networkNodeVisualizer annotationSpacing 4
par TargetNetwork.visualizer.networkNodeVisualizer placementPenalty 10
par TargetNetwork.visualizer.networkNodeVisualizer zIndex 0
par TargetNetwork.visualizer.networkConnectionVisualizer typename "\"inet.visualizer.canvas.scene.NetworkConnectionCanvasVisualizer\""
par TargetNetwork.visualizer.networkConnectionVisualizer visualizationTargetModule "\"^.^\""
par TargetNetwork.visualizer.networkConnectionVisualizer visualizationSubjectModule "\"^.^\""
par TargetNetwork.visualizer.networkConnectionVisualizer tags "\"\""
par TargetNetwork.visualizer.networkConnectionVisualizer displayNetworkConnections true
par TargetNetwork.visualizer.networkConnectionVisualizer nodeFilter "\"\""
attr mutable ""
par TargetNetwork.visualizer.networkConnectionVisualizer lineColor "\"black\""
par TargetNetwork.visualizer.networkConnectionVisualizer lineStyle "\"solid\""
par TargetNetwork.visualizer.networkConnectionVisualizer lineWidth 1
par TargetNetwork.visualizer.networkConnectionVisualizer zIndex 0
par TargetNetwork.visualizer.mobilityVisualizer typename "\"inet.visualizer.canvas.mobility.MobilityCanvasVisualizer\""
par TargetNetwork.visualizer.mobilityVisualizer visualizationTargetModule "\"^.^\""
par TargetNetwork.visualizer.mobilityVisualizer visualizationSubjectModule "\"^.^\""
par TargetNetwork.visualizer.mobilityVisualizer tags "\"\""
par TargetNetwork.visualizer.mobilityVisualizer networkNodeVisualizerModule "\"^.networkNodeVisualizer\""
par TargetNetwork.visualizer.mobilityVisualizer displayMobility true
par TargetNetwork.visualizer.mobilityVisualizer animationSpeed 0
par TargetNetwork.visualizer.mobilityVisualizer moduleFilter "\"**.mobility\""
attr mutable ""
par TargetNetwork.visualizer.mobilityVisualizer displayPositions false
par TargetNetwork.visualizer.mobilityVisualizer positionCircleRadius 4
par TargetNetwork.visualizer.mobilityVisualizer positionCircleLineWidth 1
par TargetNetwork.visualizer.mobilityVisualizer positionCircleLineColor "\"dark\""
attr enum light,dark
par TargetNetwork.visualizer.mobilityVisualizer positionCircleFillColor "\"dark\""
attr enum light,dark
par TargetNetwork.visualizer.mobilityVisualizer displayOrientations false
par TargetNetwork.visualizer.mobilityVisualizer orientationPieRadius 32
par TargetNetwork.visualizer.mobilityVisualizer orientationPieSize 0.2
par TargetNetwork.visualizer.mobilityVisualizer orientationPieOpacity 0.25
par TargetNetwork.visualizer.mobilityVisualizer orientationLineColor "\"black\""
par TargetNetwork.visualizer.mobilityVisualizer orientationLineStyle "\"solid\""
par TargetNetwork.visualizer.mobilityVisualizer orientationLineWidth 1
par TargetNetwork.visualizer.mobilityVisualizer orientationFillColor "\"blue\""
par TargetNetwork.visualizer.mobilityVisualizer displayVelocities false
par TargetNetwork.visualizer.mobilityVisualizer velocityArrowScale 1
par TargetNetwork.visualizer.mobilityVisualizer velocityLineColor "\"black\""
par TargetNetwork.visualizer.mobilityVisualizer velocityLineStyle "\"solid\""
par TargetNetwork.visualizer.mobilityVisualizer velocityLineWidth 1
par TargetNetwork.visualizer.mobilityVisualizer displayMovementTrails false
par TargetNetwork.visualizer.mobilityVisualizer movementTrailLineColor "\"dark\""
attr enum light,dark
par TargetNetwork.visualizer.mobilityVisualizer movementTrailLineStyle "\"solid\""
par TargetNetwork.visualizer.mobilityVisualizer movementTrailLineWidth 1
par TargetNetwork.visualizer.mobilityVisualizer trailLength 100
par TargetNetwork.visualizer.mobilityVisualizer zIndex 0
par TargetNetwork.visualizer.statisticVisualizer typename "\"inet.visualizer.canvas.common.StatisticCanvasVisualizer\""
par TargetNetwork.visualizer.statisticVisualizer visualizationTargetModule "\"^.^\""
par TargetNetwork.visualizer.statisticVisualizer visualizationSubjectModule "\"^.^\""
par TargetNetwork.visualizer.statisticVisualizer tags "\"\""
par TargetNetwork.visualizer.statisticVisualizer networkNodeVisualizerModule "\"^.networkNodeVisualizer\""
par TargetNetwork.visualizer.statisticVisualizer displayStatistics true
par TargetNetwork.visualizer.statisticVisualizer signalName "\"\""
par TargetNetwork.visualizer.statisticVisualizer statisticName "\"\""
par TargetNetwork.visualizer.statisticVisualizer statisticUnit "\"\""
par TargetNetwork.visualizer.statisticVisualizer statisticExpression "\"\""
par TargetNetwork.visualizer.statisticVisualizer sourceFilter "\"**\""
attr mutable ""
par TargetNetwork.visualizer.statisticVisualizer format "\"%n: %v %u\""
attr mutable ""
par TargetNetwork.visualizer.statisticVisualizer unit "\"\""
par TargetNetwork.visualizer.statisticVisualizer font "\"<default>\""
par TargetNetwork.visualizer.statisticVisualizer textColor "\"black\""
par TargetNetwork.visualizer.statisticVisualizer backgroundColor "\"white\""
par TargetNetwork.visualizer.statisticVisualizer opacity 1
par TargetNetwork.visualizer.statisticVisualizer placementHint "\"top\""
par TargetNetwork.visualizer.statisticVisualizer placementPriority 0
par TargetNetwork.visualizer.statisticVisualizer zIndex 10
par TargetNetwork.visualizer.statisticVisualizer propertyName "\"\""
par TargetNetwork.visualizer.statisticVisualizer propertyIndex "\"\""
par TargetNetwork.visualizer.infoVisualizer typename "\"inet.visualizer.canvas.common.InfoCanvasVisualizer\""
par TargetNetwork.visualizer.infoVisualizer visualizationTargetModule "\"^.^\""
par TargetNetwork.visualizer.infoVisualizer visualizationSubjectModule "\"^.^\""
par TargetNetwork.visualizer.infoVisualizer tags "\"\""
par TargetNetwork.visualizer.infoVisualizer networkNodeVisualizerModule "\"^.networkNodeVisualizer\""
par TargetNetwork.visualizer.infoVisualizer displayInfos true
par TargetNetwork.visualizer.infoVisualizer modules "\"\""
attr mutable ""
par TargetNetwork.visualizer.infoVisualizer format "\"%t\""
attr mutable ""
par TargetNetwork.visualizer.infoVisualizer font "\"<default>\""
par TargetNetwork.visualizer.infoVisualizer textColor "\"black\""
par TargetNetwork.visualizer.infoVisualizer backgroundColor "\"white\""
par TargetNetwork.visualizer.infoVisualizer opacity 1
par TargetNetwork.visualizer.infoVisualizer placementHint "\"top\""
par TargetNetwork.visualizer.infoVisualizer placementPriority 0
par TargetNetwork.visualizer.infoVisualizer zIndex 10
par TargetNetwork.visualizer.energyStorageVisualizer typename "\"inet.visualizer.canvas.power.EnergyStorageCanvasVisualizer\""
par TargetNetwork.visualizer.energyStorageVisualizer visualizationTargetModule "\"^.^\""
par TargetNetwork.visualizer.energyStorageVisualizer visualizationSubjectModule "\"^.^\""
par TargetNetwork.visualizer.energyStorageVisualizer tags "\"\""
par TargetNetwork.visualizer.energyStorageVisualizer networkNodeVisualizerModule "\"^.networkNodeVisualizer\""
par TargetNetwork.visualizer.energyStorageVisualizer displayEnergyStorages false
par TargetNetwork.visualizer.energyStorageVisualizer energyStorageFilter "\"**\""
par TargetNetwork.visualizer.energyStorageVisualizer color "\"green\""
par TargetNetwork.visualizer.energyStorageVisualizer width 8
par TargetNetwork.visualizer.energyStorageVisualizer height 24
par TargetNetwork.visualizer.energyStorageVisualizer spacing 2
par TargetNetwork.visualizer.energyStorageVisualizer placementHint "\"right\""
par TargetNetwork.visualizer.energyStorageVisualizer placementPriority 0
par TargetNetwork.visualizer.energyStorageVisualizer zIndex 10
par TargetNetwork.visualizer.mediumVisualizer typename "\"inet.visualizer.canvas.physicallayer.MediumCanvasVisualizer\""
par TargetNetwork.visualizer.mediumVisualizer visualizationTargetModule "\"^.^\""
par TargetNetwork.visualizer.mediumVisualizer visualizationSubjectModule "\"^.^\""
par TargetNetwork.visualizer.mediumVisualizer tags "\"\""
par TargetNetwork.visualizer.mediumVisualizer mediumModule "\"radioMedium\""
par TargetNetwork.visualizer.mediumVisualizer networkNodeVisualizerModule "\"^.networkNodeVisualizer\""
par TargetNetwork.visualizer.mediumVisualizer nodeFilter "\"*\""
attr mutable ""
par TargetNetwork.visualizer.mediumVisualizer interfaceFilter "\"*\""
attr mutable ""
par TargetNetwork.visualizer.mediumVisualizer packetFilter "(omnetpp::cValueHolder)holder: \"*\""
attr mutable ""
par TargetNetwork.visualizer.mediumVisualizer displaySignals false
par TargetNetwork.visualizer.mediumVisualizer signalColor "\"dark\""
attr enum light,dark
par TargetNetwork.visualizer.mediumVisualizer signalPropagationAnimationSpeed "nan "
attr mutable ""
par TargetNetwork.visualizer.mediumVisualizer signalPropagationAnimationTime 1s
attr unit s
par TargetNetwork.visualizer.mediumVisualizer signalPropagationAdditionalTime 0s
attr unit s
par TargetNetwork.visualizer.mediumVisualizer signalTransmissionAnimationSpeed "nan "
attr mutable ""
par TargetNetwork.visualizer.mediumVisualizer signalTransmissionAnimationTime 1s
attr unit s
par TargetNetwork.visualizer.mediumVisualizer signalAnimationSpeedChangeTimeMode "\"realTime\""
attr enum realTime,animationTime,simulationTime
par TargetNetwork.visualizer.mediumVisualizer signalAnimationSpeedChangeTime 1s
attr unit s
par TargetNetwork.visualizer.mediumVisualizer displaySignalDepartures false
par TargetNetwork.visualizer.mediumVisualizer signalDepartureImage "\"misc/signal_departure.png\""
par TargetNetwork.visualizer.mediumVisualizer signalDeparturePlacementHint "\"topCenter\""
par TargetNetwork.visualizer.mediumVisualizer signalDeparturePlacementPriority 1
par TargetNetwork.visualizer.mediumVisualizer displaySignalArrivals false
par TargetNetwork.visualizer.mediumVisualizer signalArrivalImage "\"misc/signal_arrival.png\""
par TargetNetwork.visualizer.mediumVisualizer signalArrivalPlacementHint "\"topCenter\""
par TargetNetwork.visualizer.mediumVisualizer signalArrivalPlacementPriority -1
par TargetNetwork.visualizer.mediumVisualizer displayCommunicationRanges false
par TargetNetwork.visualizer.mediumVisualizer communicationRangeLineColor "\"blue\""
par TargetNetwork.visualizer.mediumVisualizer communicationRangeLineStyle "\"solid\""
par TargetNetwork.visualizer.mediumVisualizer communicationRangeLineWidth 1
par TargetNetwork.visualizer.mediumVisualizer displayInterferenceRanges false
par TargetNetwork.visualizer.mediumVisualizer interferenceRangeLineColor "\"gray\""
par TargetNetwork.visualizer.mediumVisualizer interferenceRangeLineStyle "\"solid\""
par TargetNetwork.visualizer.mediumVisualizer interferenceRangeLineWidth 1
par TargetNetwork.visualizer.mediumVisualizer autoPowerAxis true
par TargetNetwork.visualizer.mediumVisualizer signalMinPower "inf dBmW"
attr unit dBmW
par TargetNetwork.visualizer.mediumVisualizer signalMaxPower 0dBmW
attr unit dBmW
par TargetNetwork.visualizer.mediumVisualizer signalMinPowerDensity "inf dBmWpMHz"
attr unit dBmWpMHz
par TargetNetwork.visualizer.mediumVisualizer signalMaxPowerDensity "-inf dBmWpMHz"
attr unit dBmWpMHz
par TargetNetwork.visualizer.mediumVisualizer autoTimeAxis true
par TargetNetwork.visualizer.mediumVisualizer signalMinTime 0s
attr unit s
par TargetNetwork.visualizer.mediumVisualizer signalMaxTime 0s
attr unit s
par TargetNetwork.visualizer.mediumVisualizer autoFrequencyAxis true
par TargetNetwork.visualizer.mediumVisualizer signalMinFrequency "inf Hz"
attr unit Hz
par TargetNetwork.visualizer.mediumVisualizer signalMaxFrequency "-inf Hz"
attr unit Hz
par TargetNetwork.visualizer.mediumVisualizer displayMainPowerDensityMap false
par TargetNetwork.visualizer.mediumVisualizer mainPowerDensityMapPixmapDensity 1
par TargetNetwork.visualizer.mediumVisualizer mainPowerDensityMapMinX 0
par TargetNetwork.visualizer.mediumVisualizer mainPowerDensityMapMaxX "nan "
par TargetNetwork.visualizer.mediumVisualizer mainPowerDensityMapMinY 0
par TargetNetwork.visualizer.mediumVisualizer mainPowerDensityMapMaxY "nan "
par TargetNetwork.visualizer.mediumVisualizer mainPowerDensityMapZ 0
par TargetNetwork.visualizer.mediumVisualizer mainPowerDensityMapFigureXTickCount 3
par TargetNetwork.visualizer.mediumVisualizer mainPowerDensityMapFigureYTickCount 3
par TargetNetwork.visualizer.mediumVisualizer displayPowerDensityMaps false
par TargetNetwork.visualizer.mediumVisualizer powerDensityMapMode "\"auto\""
attr enum total,signal,auto
par TargetNetwork.visualizer.mediumVisualizer powerDensityMapPixelMode "\"mean\""
attr enum sample,partition,mean
par TargetNetwork.visualizer.mediumVisualizer powerDensityMapApproximationSize 10
par TargetNetwork.visualizer.mediumVisualizer powerDensityMapCenterFrequency "nan Hz"
attr mutable ""
attr unit Hz
par TargetNetwork.visualizer.mediumVisualizer powerDensityMapBandwidth 0Hz
attr mutable ""
attr unit Hz
par TargetNetwork.visualizer.mediumVisualizer powerDensityMapFigureWidth 200
par TargetNetwork.visualizer.mediumVisualizer powerDensityMapFigureHeight 120
par TargetNetwork.visualizer.mediumVisualizer powerDensityMapPixmapWidth 200
par TargetNetwork.visualizer.mediumVisualizer powerDensityMapPixmapHeight 120
par TargetNetwork.visualizer.mediumVisualizer powerDensityMapZ 0
par TargetNetwork.visualizer.mediumVisualizer powerDensityMapFigureXTickCount 3
par TargetNetwork.visualizer.mediumVisualizer powerDensityMapFigureYTickCount 3
par TargetNetwork.visualizer.mediumVisualizer displaySpectrums false
par TargetNetwork.visualizer.mediumVisualizer spectrumMode "\"auto\""
attr enum total,signal,auto
par TargetNetwork.visualizer.mediumVisualizer spectrumFigureWidth 200
par TargetNetwork.visualizer.mediumVisualizer spectrumFigureHeight 120
par TargetNetwork.visualizer.mediumVisualizer spectrumFigureXTickCount 3
par TargetNetwork.visualizer.mediumVisualizer spectrumFigureYTickCount 5
par TargetNetwork.visualizer.mediumVisualizer spectrumFigureInterpolationSize 5
par TargetNetwork.visualizer.mediumVisualizer spectrumPlacementHint "\"bottomCenter\""
par TargetNetwork.visualizer.mediumVisualizer spectrumPlacementPriority -1
par TargetNetwork.visualizer.mediumVisualizer displaySpectrograms false
par TargetNetwork.visualizer.mediumVisualizer spectrogramMode "\"auto\""
attr enum total,signal,auto
par TargetNetwork.visualizer.mediumVisualizer spectrogramPixelMode "\"mean\""
attr enum sample,partition,mean
par TargetNetwork.visualizer.mediumVisualizer spectrogramFigureWidth 200
par TargetNetwork.visualizer.mediumVisualizer spectrogramFigureHeight 120
par TargetNetwork.visualizer.mediumVisualizer spectrogramPixmapWidth 200
par TargetNetwork.visualizer.mediumVisualizer spectrogramPixmapHeight 120
par TargetNetwork.visualizer.mediumVisualizer spectrogramFigureXTickCount 3
par TargetNetwork.visualizer.mediumVisualizer spectrogramFigureYTickCount 5
par TargetNetwork.visualizer.mediumVisualizer spectrogramPlacementHint "\"bottomCenter\""
par TargetNetwork.visualizer.mediumVisualizer spectrogramPlacementPriority -1
par TargetNetwork.visualizer.mediumVisualizer zIndex 0
par TargetNetwork.visualizer.mediumVisualizer signalShape "\"ring\""
attr enum ring,sphere
par TargetNetwork.visualizer.mediumVisualizer signalOpacity 0.5
par TargetNetwork.visualizer.mediumVisualizer signalRingCount 20
par TargetNetwork.visualizer.mediumVisualizer signalRingSize 50m
attr unit m
par TargetNetwork.visualizer.mediumVisualizer signalFadingDistance 50m
attr unit m
par TargetNetwork.visualizer.mediumVisualizer signalFadingFactor 1.2
par TargetNetwork.visualizer.mediumVisualizer signalWaveCount 20
par TargetNetwork.visualizer.mediumVisualizer signalWaveLength 50m
attr unit m
par TargetNetwork.visualizer.mediumVisualizer signalWaveWidth 10m
attr unit m
par TargetNetwork.visualizer.mediumVisualizer signalWaveFadingAnimationSpeedFactor 1
par TargetNetwork.visualizer.mediumVisualizer displayCommunicationHeat false
par TargetNetwork.visualizer.obstacleLossVisualizer typename "\"inet.visualizer.canvas.physicallayer.TracingObstacleLossCanvasVisualizer\""
par TargetNetwork.visualizer.obstacleLossVisualizer visualizationTargetModule "\"^.^\""
par TargetNetwork.visualizer.obstacleLossVisualizer visualizationSubjectModule "\"^.^\""
par TargetNetwork.visualizer.obstacleLossVisualizer tags "\"\""
par TargetNetwork.visualizer.obstacleLossVisualizer displayIntersections false
par TargetNetwork.visualizer.obstacleLossVisualizer intersectionLineColor "\"red\""
par TargetNetwork.visualizer.obstacleLossVisualizer intersectionLineStyle "\"solid\""
par TargetNetwork.visualizer.obstacleLossVisualizer intersectionLineWidth 1
par TargetNetwork.visualizer.obstacleLossVisualizer displayFaceNormalVectors false
par TargetNetwork.visualizer.obstacleLossVisualizer faceNormalLineColor "\"grey\""
par TargetNetwork.visualizer.obstacleLossVisualizer faceNormalLineStyle "\"solid\""
par TargetNetwork.visualizer.obstacleLossVisualizer faceNormalLineWidth 1
par TargetNetwork.visualizer.obstacleLossVisualizer fadeOutMode "\"realTime\""
attr enum realTime,animationTime,simulationTime
par TargetNetwork.visualizer.obstacleLossVisualizer fadeOutTime 1s
attr unit s
par TargetNetwork.visualizer.obstacleLossVisualizer fadeOutAnimationSpeed 0
par TargetNetwork.visualizer.obstacleLossVisualizer zIndex 0
par TargetNetwork.visualizer.packetDropVisualizer typename "\"inet.visualizer.canvas.common.PacketDropCanvasVisualizer\""
par TargetNetwork.visualizer.packetDropVisualizer visualizationTargetModule "\"^.^\""
par TargetNetwork.visualizer.packetDropVisualizer visualizationSubjectModule "\"^.^\""
par TargetNetwork.visualizer.packetDropVisualizer tags "\"\""
par TargetNetwork.visualizer.packetDropVisualizer displayPacketDrops false
par TargetNetwork.visualizer.packetDropVisualizer nodeFilter "\"*\""
attr mutable ""
par TargetNetwork.visualizer.packetDropVisualizer interfaceFilter "\"*\""
attr mutable ""
par TargetNetwork.visualizer.packetDropVisualizer packetFilter "(omnetpp::cValueHolder)holder: \"*\""
attr mutable ""
par TargetNetwork.visualizer.packetDropVisualizer detailsFilter "\"*\""
attr mutable ""
par TargetNetwork.visualizer.packetDropVisualizer icon "\"msg/packet_s\""
par TargetNetwork.visualizer.packetDropVisualizer iconTintAmount 1
par TargetNetwork.visualizer.packetDropVisualizer iconTintColor "\"dark\""
par TargetNetwork.visualizer.packetDropVisualizer labelFormat "\"%n\""
attr mutable ""
par TargetNetwork.visualizer.packetDropVisualizer labelFont "\"<default>\""
par TargetNetwork.visualizer.packetDropVisualizer labelColor "\"black\""
par TargetNetwork.visualizer.packetDropVisualizer fadeOutMode "\"realTime\""
attr enum realTime,animationTime,simulationTime
par TargetNetwork.visualizer.packetDropVisualizer fadeOutTime 1s
attr unit s
par TargetNetwork.visualizer.packetDropVisualizer fadeOutAnimationSpeed 0
par TargetNetwork.visualizer.packetDropVisualizer zIndex 10
par TargetNetwork.visualizer.packetDropVisualizer dx 32
par TargetNetwork.visualizer.packetDropVisualizer dy 64
par TargetNetwork.visualizer.packetFlowVisualizer typename "\"inet.visualizer.canvas.flow.PacketFlowCanvasVisualizer\""
par TargetNetwork.visualizer.packetFlowVisualizer visualizationTargetModule "\"^.^\""
par TargetNetwork.visualizer.packetFlowVisualizer visualizationSubjectModule "\"^.^\""
par TargetNetwork.visualizer.packetFlowVisualizer tags "\"\""
par TargetNetwork.visualizer.packetFlowVisualizer displayRoutes false
par TargetNetwork.visualizer.packetFlowVisualizer startPathSignal "\"packetFlowStarted\""
par TargetNetwork.visualizer.packetFlowVisualizer extendPathSignal "\"packetReceivedFromLower\""
par TargetNetwork.visualizer.packetFlowVisualizer endPathSignal "\"packetFlowEnded\""
par TargetNetwork.visualizer.packetFlowVisualizer nodeFilter "\"*\""
attr mutable ""
par TargetNetwork.visualizer.packetFlowVisualizer packetFilter "(omnetpp::cValueHolder)holder: \"*\""
attr mutable ""
par TargetNetwork.visualizer.packetFlowVisualizer lineColor "\"dark\""
attr enum light,dark
par TargetNetwork.visualizer.packetFlowVisualizer lineStyle "\"dashed\""
par TargetNetwork.visualizer.packetFlowVisualizer lineWidth 3
par TargetNetwork.visualizer.packetFlowVisualizer lineSmooth false
par TargetNetwork.visualizer.packetFlowVisualizer lineShift 16
par TargetNetwork.visualizer.packetFlowVisualizer lineShiftMode "\"normal\""
par TargetNetwork.visualizer.packetFlowVisualizer lineContactSpacing 3
par TargetNetwork.visualizer.packetFlowVisualizer lineContactMode "\"rectangular\""
attr enum circular,rectangular
par TargetNetwork.visualizer.packetFlowVisualizer labelFormat "\"%L %p pk (%l)\""
par TargetNetwork.visualizer.packetFlowVisualizer labelFont "\"<default>, 8px\""
par TargetNetwork.visualizer.packetFlowVisualizer labelColor "\"\""
par TargetNetwork.visualizer.packetFlowVisualizer fadeOutMode "\"realTime\""
attr enum realTime,animationTime,simulationTime
par TargetNetwork.visualizer.packetFlowVisualizer fadeOutTime 0s
attr unit s
par TargetNetwork.visualizer.packetFlowVisualizer fadeOutAnimationSpeed 0
par TargetNetwork.visualizer.packetFlowVisualizer zIndex 4
par TargetNetwork.visualizer.queueVisualizer typename "\"inet.visualizer.canvas.common.QueueCanvasVisualizer\""
par TargetNetwork.visualizer.queueVisualizer visualizationTargetModule "\"^.^\""
par TargetNetwork.visualizer.queueVisualizer visualizationSubjectModule "\"^.^\""
par TargetNetwork.visualizer.queueVisualizer tags "\"\""
par TargetNetwork.visualizer.queueVisualizer networkNodeVisualizerModule "\"^.networkNodeVisualizer\""
par TargetNetwork.visualizer.queueVisualizer displayQueues false
par TargetNetwork.visualizer.queueVisualizer queueFilter "\"**\""
par TargetNetwork.visualizer.queueVisualizer color "\"blue\""
par TargetNetwork.visualizer.queueVisualizer width 8
par TargetNetwork.visualizer.queueVisualizer height 24
par TargetNetwork.visualizer.queueVisualizer spacing 2
par TargetNetwork.visualizer.queueVisualizer placementHint "\"right\""
par TargetNetwork.visualizer.queueVisualizer placementPriority 0
par TargetNetwork.visualizer.queueVisualizer zIndex 10
par TargetNetwork.visualizer.gateScheduleVisualizer typename "\"inet.visualizer.canvas.common.GateScheduleCanvasVisualizer\""
par TargetNetwork.visualizer.gateScheduleVisualizer visualizationTargetModule "\"^.^\""
par TargetNetwork.visualizer.gateScheduleVisualizer visualizationSubjectModule "\"^.^\""
par TargetNetwork.visualizer.gateScheduleVisualizer tags "\"\""
par TargetNetwork.visualizer.gateScheduleVisualizer networkNodeVisualizerModule "\"^.networkNodeVisualizer\""
par TargetNetwork.visualizer.gateScheduleVisualizer displayGateSchedules false
par TargetNetwork.visualizer.gateScheduleVisualizer labelFormat "\"%i %D\""
par TargetNetwork.visualizer.gateScheduleVisualizer gateFilter "\"**\""
par TargetNetwork.visualizer.gateScheduleVisualizer width 100
par TargetNetwork.visualizer.gateScheduleVisualizer height 8
par TargetNetwork.visualizer.gateScheduleVisualizer spacing 2
par TargetNetwork.visualizer.gateScheduleVisualizer placementHint "\"right\""
par TargetNetwork.visualizer.gateScheduleVisualizer placementPriority 0
par TargetNetwork.visualizer.gateScheduleVisualizer displayDuration 0s
attr mutable ""
attr unit s
par TargetNetwork.visualizer.gateScheduleVisualizer currentTimePosition 50
par TargetNetwork.visualizer.gateScheduleVisualizer zIndex 10
par TargetNetwork.visualizer.radioVisualizer typename "\"inet.visualizer.canvas.physicallayer.RadioCanvasVisualizer\""
par TargetNetwork.visualizer.radioVisualizer visualizationTargetModule "\"^.^\""
par TargetNetwork.visualizer.radioVisualizer visualizationSubjectModule "\"^.^\""
par TargetNetwork.visualizer.radioVisualizer tags "\"\""
par TargetNetwork.visualizer.radioVisualizer networkNodeVisualizerModule "\"^.networkNodeVisualizer\""
par TargetNetwork.visualizer.radioVisualizer displayRadios false
par TargetNetwork.visualizer.radioVisualizer displayRadioMode true
par TargetNetwork.visualizer.radioVisualizer displayReceptionState true
par TargetNetwork.visualizer.radioVisualizer displayTransmissionState true
par TargetNetwork.visualizer.radioVisualizer displayAntennaLobes false
par TargetNetwork.visualizer.radioVisualizer radioFilter "\"**\""
attr mutable ""
par TargetNetwork.visualizer.radioVisualizer radioModeImages "\"block/process_vs block/timer_vs block/wrx_vs block/wtx_vs block/wrxtx_vs block/cogwheel_vs\""
par TargetNetwork.visualizer.radioVisualizer receptionStateImages "\"- - misc/receiving misc/receiving\""
par TargetNetwork.visualizer.radioVisualizer transmissionStateImages "\"- - misc/transmitting\""
par TargetNetwork.visualizer.radioVisualizer width 16
par TargetNetwork.visualizer.radioVisualizer height 16
par TargetNetwork.visualizer.radioVisualizer placementHint "\"bottomRight\""
par TargetNetwork.visualizer.radioVisualizer placementPriority 0
par TargetNetwork.visualizer.radioVisualizer antennaLobeNormalize false
par TargetNetwork.visualizer.radioVisualizer antennaLobeRelativeLabels false
par TargetNetwork.visualizer.radioVisualizer antennaLobePlaneGlobal true
par TargetNetwork.visualizer.radioVisualizer antennaLobePlane "\"view\""
attr enum view,xy,xz,yz
par TargetNetwork.visualizer.radioVisualizer antennaLobeMode "\"logarithmic\""
attr enum logarithmic,linear
par TargetNetwork.visualizer.radioVisualizer antennaLobeLogarithmicBase 10
par TargetNetwork.visualizer.radioVisualizer antennaLobeLogarithmicScale 100
par TargetNetwork.visualizer.radioVisualizer antennaLobeRadius 100
par TargetNetwork.visualizer.radioVisualizer antennaLobeStep 10deg
attr unit deg
par TargetNetwork.visualizer.radioVisualizer antennaLobeOpacity 0.25
par TargetNetwork.visualizer.radioVisualizer antennaLobeLineSmooth true
par TargetNetwork.visualizer.radioVisualizer antennaLobeLineColor "\"black\""
par TargetNetwork.visualizer.radioVisualizer antennaLobeLineStyle "\"solid\""
par TargetNetwork.visualizer.radioVisualizer antennaLobeLineWidth 1
par TargetNetwork.visualizer.radioVisualizer antennaLobeFillColor "\"white\""
par TargetNetwork.visualizer.radioVisualizer zIndex 10
par TargetNetwork.visualizer.physicalLinkVisualizer typename "\"inet.visualizer.canvas.physicallayer.PhysicalLinkCanvasVisualizer\""
par TargetNetwork.visualizer.physicalLinkVisualizer visualizationTargetModule "\"^.^\""
par TargetNetwork.visualizer.physicalLinkVisualizer visualizationSubjectModule "\"^.^\""
par TargetNetwork.visualizer.physicalLinkVisualizer tags "\"\""
par TargetNetwork.visualizer.physicalLinkVisualizer displayLinks false
par TargetNetwork.visualizer.physicalLinkVisualizer activityLevel "\"service\""
attr enum service,peer,protocol
par TargetNetwork.visualizer.physicalLinkVisualizer nodeFilter "\"*\""
attr mutable ""
par TargetNetwork.visualizer.physicalLinkVisualizer interfaceFilter "\"*\""
attr mutable ""
par TargetNetwork.visualizer.physicalLinkVisualizer packetFilter "(omnetpp::cValueHolder)holder: \"*\""
attr mutable ""
par TargetNetwork.visualizer.physicalLinkVisualizer lineColor "\"olive\""
par TargetNetwork.visualizer.physicalLinkVisualizer lineStyle "\"dotted\""
par TargetNetwork.visualizer.physicalLinkVisualizer lineWidth 3
par TargetNetwork.visualizer.physicalLinkVisualizer lineShift 16
par TargetNetwork.visualizer.physicalLinkVisualizer lineShiftMode "\"normal\""
par TargetNetwork.visualizer.physicalLinkVisualizer lineContactSpacing 3
par TargetNetwork.visualizer.physicalLinkVisualizer lineContactMode "\"rectangular\""
attr enum circular,rectangular
par TargetNetwork.visualizer.physicalLinkVisualizer labelFormat "\"%n\""
par TargetNetwork.visualizer.physicalLinkVisualizer labelFont "\"<default>, 8px\""
par TargetNetwork.visualizer.physicalLinkVisualizer labelColor "\"olive\""
par TargetNetwork.visualizer.physicalLinkVisualizer fadeOutMode "\"realTime\""
attr enum realTime,animationTime,simulationTime
par TargetNetwork.visualizer.physicalLinkVisualizer fadeOutTime 1s
attr unit s
par TargetNetwork.visualizer.physicalLinkVisualizer fadeOutAnimationSpeed 0
par TargetNetwork.visualizer.physicalLinkVisualizer holdAnimationTime 0s
attr unit s
par TargetNetwork.visualizer.physicalLinkVisualizer zIndex 1
par TargetNetwork.visualizer.interfaceTableVisualizer typename "\"inet.visualizer.canvas.linklayer.InterfaceTableCanvasVisualizer\""
par TargetNetwork.visualizer.interfaceTableVisualizer visualizationTargetModule "\"^.^\""
par TargetNetwork.visualizer.interfaceTableVisualizer visualizationSubjectModule "\"^.^\""
par TargetNetwork.visualizer.interfaceTableVisualizer tags "\"\""
par TargetNetwork.visualizer.interfaceTableVisualizer networkNodeVisualizerModule "\"^.networkNodeVisualizer\""
par TargetNetwork.visualizer.interfaceTableVisualizer displayInterfaceTables false
par TargetNetwork.visualizer.interfaceTableVisualizer displayWiredInterfacesAtConnections true
par TargetNetwork.visualizer.interfaceTableVisualizer displayBackground false
par TargetNetwork.visualizer.interfaceTableVisualizer nodeFilter "\"*\""
attr mutable ""
par TargetNetwork.visualizer.interfaceTableVisualizer interfaceFilter "\"not(lo*)\""
attr mutable ""
par TargetNetwork.visualizer.interfaceTableVisualizer format "\"%N %\\\\%a%/%l\""
attr mutable ""
par TargetNetwork.visualizer.interfaceTableVisualizer placementHint "\"top\""
par TargetNetwork.visualizer.interfaceTableVisualizer placementPriority 0
par TargetNetwork.visualizer.interfaceTableVisualizer font "\"<default>\""
par TargetNetwork.visualizer.interfaceTableVisualizer textColor "\"#005030\""
par TargetNetwork.visualizer.interfaceTableVisualizer backgroundColor "\"white\""
par TargetNetwork.visualizer.interfaceTableVisualizer opacity 1
par TargetNetwork.visualizer.interfaceTableVisualizer zIndex 10
par TargetNetwork.visualizer.dataLinkVisualizer typename "\"inet.visualizer.canvas.linklayer.DataLinkCanvasVisualizer\""
par TargetNetwork.visualizer.dataLinkVisualizer visualizationTargetModule "\"^.^\""
par TargetNetwork.visualizer.dataLinkVisualizer visualizationSubjectModule "\"^.^\""
par TargetNetwork.visualizer.dataLinkVisualizer tags "\"\""
par TargetNetwork.visualizer.dataLinkVisualizer displayLinks false
par TargetNetwork.visualizer.dataLinkVisualizer activityLevel "\"service\""
attr enum service,peer,protocol
par TargetNetwork.visualizer.dataLinkVisualizer nodeFilter "\"*\""
attr mutable ""
par TargetNetwork.visualizer.dataLinkVisualizer interfaceFilter "\"*\""
attr mutable ""
par TargetNetwork.visualizer.dataLinkVisualizer packetFilter "(omnetpp::cValueHolder)holder: \"*\""
attr mutable ""
par TargetNetwork.visualizer.dataLinkVisualizer lineColor "\"darkcyan\""
par TargetNetwork.visualizer.dataLinkVisualizer lineStyle "\"solid\""
par TargetNetwork.visualizer.dataLinkVisualizer lineWidth 3
par TargetNetwork.visualizer.dataLinkVisualizer lineShift 16
par TargetNetwork.visualizer.dataLinkVisualizer lineShiftMode "\"normal\""
par TargetNetwork.visualizer.dataLinkVisualizer lineContactSpacing 3
par TargetNetwork.visualizer.dataLinkVisualizer lineContactMode "\"rectangular\""
attr enum circular,rectangular
par TargetNetwork.visualizer.dataLinkVisualizer labelFormat "\"%n\""
par TargetNetwork.visualizer.dataLinkVisualizer labelFont "\"<default>, 8px\""
par TargetNetwork.visualizer.dataLinkVisualizer labelColor "\"darkcyan\""
par TargetNetwork.visualizer.dataLinkVisualizer fadeOutMode "\"realTime\""
attr enum realTime,animationTime,simulationTime
par TargetNetwork.visualizer.dataLinkVisualizer fadeOutTime 1s
attr unit s
par TargetNetwork.visualizer.dataLinkVisualizer fadeOutAnimationSpeed 0
par TargetNetwork.visualizer.dataLinkVisualizer holdAnimationTime 0s
attr unit s
par TargetNetwork.visualizer.dataLinkVisualizer zIndex 2
par TargetNetwork.visualizer.linkBreakVisualizer typename "\"inet.visualizer.canvas.linklayer.LinkBreakCanvasVisualizer\""
par TargetNetwork.visualizer.linkBreakVisualizer visualizationTargetModule "\"^.^\""
par TargetNetwork.visualizer.linkBreakVisualizer visualizationSubjectModule "\"^.^\""
par TargetNetwork.visualizer.linkBreakVisualizer tags "\"\""
par TargetNetwork.visualizer.linkBreakVisualizer displayLinkBreaks false
par TargetNetwork.visualizer.linkBreakVisualizer nodeFilter "\"*\""
attr mutable ""
par TargetNetwork.visualizer.linkBreakVisualizer interfaceFilter "\"*\""
attr mutable ""
par TargetNetwork.visualizer.linkBreakVisualizer packetFilter "(omnetpp::cValueHolder)holder: \"*\""
attr mutable ""
par TargetNetwork.visualizer.linkBreakVisualizer icon "\"status/stop\""
par TargetNetwork.visualizer.linkBreakVisualizer iconTintAmount 0
par TargetNetwork.visualizer.linkBreakVisualizer iconTintColor "\"\""
par TargetNetwork.visualizer.linkBreakVisualizer fadeOutMode "\"realTime\""
attr enum realTime,animationTime,simulationTime
par TargetNetwork.visualizer.linkBreakVisualizer fadeOutTime 1s
attr unit s
par TargetNetwork.visualizer.linkBreakVisualizer fadeOutAnimationSpeed 0
par TargetNetwork.visualizer.linkBreakVisualizer zIndex 2
par TargetNetwork.visualizer.ieee80211Visualizer typename "\"inet.visualizer.canvas.linklayer.Ieee80211CanvasVisualizer\""
par TargetNetwork.visualizer.ieee80211Visualizer visualizationTargetModule "\"^.^\""
par TargetNetwork.visualizer.ieee80211Visualizer visualizationSubjectModule "\"^.^\""
par TargetNetwork.visualizer.ieee80211Visualizer tags "\"\""
par TargetNetwork.visualizer.ieee80211Visualizer networkNodeVisualizerModule "\"^.networkNodeVisualizer\""
par TargetNetwork.visualizer.ieee80211Visualizer displayAssociations false
par TargetNetwork.visualizer.ieee80211Visualizer nodeFilter "\"*\""
attr mutable ""
par TargetNetwork.visualizer.ieee80211Visualizer interfaceFilter "\"*\""
attr mutable ""
par TargetNetwork.visualizer.ieee80211Visualizer minPower -85dBm
attr unit dBm
par TargetNetwork.visualizer.ieee80211Visualizer maxPower -50dBm
attr unit dBm
par TargetNetwork.visualizer.ieee80211Visualizer icons "\"misc/signal_power_0 misc/signal_power_1 misc/signal_power_2 misc/signal_power_3\""
par TargetNetwork.visualizer.ieee80211Visualizer iconColor "\"dark\""
attr enum light,dark
par TargetNetwork.visualizer.ieee80211Visualizer labelFont "\"<default>\""
par TargetNetwork.visualizer.ieee80211Visualizer labelColor "\"black\""
par TargetNetwork.visualizer.ieee80211Visualizer placementHint "\"top\""
par TargetNetwork.visualizer.ieee80211Visualizer placementPriority 0
par TargetNetwork.visualizer.ieee80211Visualizer zIndex 2
par TargetNetwork.visualizer.networkRouteVisualizer typename "\"inet.visualizer.canvas.networklayer.NetworkRouteCanvasVisualizer\""
par TargetNetwork.visualizer.networkRouteVisualizer visualizationTargetModule "\"^.^\""
par TargetNetwork.visualizer.networkRouteVisualizer visualizationSubjectModule "\"^.^\""
par TargetNetwork.visualizer.networkRouteVisualizer tags "\"\""
par TargetNetwork.visualizer.networkRouteVisualizer displayRoutes false
par TargetNetwork.visualizer.networkRouteVisualizer startPathSignal "\"packetReceivedFromUpper\""
par TargetNetwork.visualizer.networkRouteVisualizer extendPathSignal "\"packetReceivedFromLower\""
par TargetNetwork.visualizer.networkRouteVisualizer endPathSignal "\"packetSentToUpper\""
par TargetNetwork.visualizer.networkRouteVisualizer nodeFilter "\"*\""
attr mutable ""
par TargetNetwork.visualizer.networkRouteVisualizer packetFilter "(omnetpp::cValueHolder)holder: \"*\""
attr mutable ""
par TargetNetwork.visualizer.networkRouteVisualizer lineColor "\"dark\""
attr enum light,dark
par TargetNetwork.visualizer.networkRouteVisualizer lineStyle "\"solid\""
par TargetNetwork.visualizer.networkRouteVisualizer lineWidth 3
par TargetNetwork.visualizer.networkRouteVisualizer lineSmooth false
par TargetNetwork.visualizer.networkRouteVisualizer lineShift 16
par TargetNetwork.visualizer.networkRouteVisualizer lineShiftMode "\"normal\""
par TargetNetwork.visualizer.networkRouteVisualizer lineContactSpacing 3
par TargetNetwork.visualizer.networkRouteVisualizer lineContactMode "\"rectangular\""
attr enum circular,rectangular
par TargetNetwork.visualizer.networkRouteVisualizer labelFormat "\"%n\""
par TargetNetwork.visualizer.networkRouteVisualizer labelFont "\"<default>, 8px\""
par TargetNetwork.visualizer.networkRouteVisualizer labelColor "\"\""
par TargetNetwork.visualizer.networkRouteVisualizer fadeOutMode "\"realTime\""
attr enum realTime,animationTime,simulationTime
par TargetNetwork.visualizer.networkRouteVisualizer fadeOutTime 1s
attr unit s
par TargetNetwork.visualizer.networkRouteVisualizer fadeOutAnimationSpeed 0
par TargetNetwork.visualizer.networkRouteVisualizer zIndex 3
par TargetNetwork.visualizer.routingTableVisualizer typename "\"inet.visualizer.canvas.networklayer.RoutingTableCanvasVisualizer\""
par TargetNetwork.visualizer.routingTableVisualizer visualizationTargetModule "\"^.^\""
par TargetNetwork.visualizer.routingTableVisualizer visualizationSubjectModule "\"^.^\""
par TargetNetwork.visualizer.routingTableVisualizer tags "\"\""
par TargetNetwork.visualizer.routingTableVisualizer displayRoutingTables false
par TargetNetwork.visualizer.routingTableVisualizer displayRoutesIndividually true
par TargetNetwork.visualizer.routingTableVisualizer displayLabels true
par TargetNetwork.visualizer.routingTableVisualizer destinationFilter "\"*\""
attr mutable ""
par TargetNetwork.visualizer.routingTableVisualizer nodeFilter "\"*\""
attr mutable ""
par TargetNetwork.visualizer.routingTableVisualizer lineColor "\"black\""
par TargetNetwork.visualizer.routingTableVisualizer lineStyle "\"solid\""
par TargetNetwork.visualizer.routingTableVisualizer lineWidth 2
par TargetNetwork.visualizer.routingTableVisualizer lineShift 16
par TargetNetwork.visualizer.routingTableVisualizer lineShiftMode "\"normal\""
par TargetNetwork.visualizer.routingTableVisualizer lineContactSpacing 3
par TargetNetwork.visualizer.routingTableVisualizer lineContactMode "\"rectangular\""
attr enum circular,rectangular
par TargetNetwork.visualizer.routingTableVisualizer labelFormat "\"%d/%m -> %g (%n)\""
attr mutable ""
par TargetNetwork.visualizer.routingTableVisualizer labelFont "\"<default>, 8px\""
par TargetNetwork.visualizer.routingTableVisualizer labelColor "\"black\""
par TargetNetwork.visualizer.routingTableVisualizer zIndex 0
par TargetNetwork.visualizer.transportRouteVisualizer typename "\"inet.visualizer.canvas.transportlayer.TransportRouteCanvasVisualizer\""
par TargetNetwork.visualizer.transportRouteVisualizer visualizationTargetModule "\"^.^\""
par TargetNetwork.visualizer.transportRouteVisualizer visualizationSubjectModule "\"^.^\""
par TargetNetwork.visualizer.transportRouteVisualizer tags "\"\""
par TargetNetwork.visualizer.transportRouteVisualizer displayRoutes false
par TargetNetwork.visualizer.transportRouteVisualizer startPathSignal "\"packetReceivedFromUpper\""
par TargetNetwork.visualizer.transportRouteVisualizer extendPathSignal "\"packetReceivedFromLower\""
par TargetNetwork.visualizer.transportRouteVisualizer endPathSignal "\"packetSentToUpper\""
par TargetNetwork.visualizer.transportRouteVisualizer nodeFilter "\"*\""
attr mutable ""
par TargetNetwork.visualizer.transportRouteVisualizer packetFilter "(omnetpp::cValueHolder)holder: \"*\""
attr mutable ""
par TargetNetwork.visualizer.transportRouteVisualizer lineColor "\"dark\""
attr enum light,dark
par TargetNetwork.visualizer.transportRouteVisualizer lineStyle "\"solid\""
par TargetNetwork.visualizer.transportRouteVisualizer lineWidth 3
par TargetNetwork.visualizer.transportRouteVisualizer lineSmooth false
par TargetNetwork.visualizer.transportRouteVisualizer lineShift 16
par TargetNetwork.visualizer.transportRouteVisualizer lineShiftMode "\"normal\""
par TargetNetwork.visualizer.transportRouteVisualizer lineContactSpacing 3
par TargetNetwork.visualizer.transportRouteVisualizer lineContactMode "\"rectangular\""
attr enum circular,rectangular
par TargetNetwork.visualizer.transportRouteVisualizer labelFormat "\"%n\""
par TargetNetwork.visualizer.transportRouteVisualizer labelFont "\"<default>, 8px\""
par TargetNetwork.visualizer.transportRouteVisualizer labelColor "\"\""
par TargetNetwork.visualizer.transportRouteVisualizer fadeOutMode "\"realTime\""
attr enum realTime,animationTime,simulationTime
par TargetNetwork.visualizer.transportRouteVisualizer fadeOutTime 1s
attr unit s
par TargetNetwork.visualizer.transportRouteVisualizer fadeOutAnimationSpeed 0
par TargetNetwork.visualizer.transportRouteVisualizer zIndex 4
par TargetNetwork.visualizer.transportConnectionVisualizer typename "\"inet.visualizer.canvas.transportlayer.TransportConnectionCanvasVisualizer\""
par TargetNetwork.visualizer.transportConnectionVisualizer visualizationTargetModule "\"^.^\""
par TargetNetwork.visualizer.transportConnectionVisualizer visualizationSubjectModule "\"^.^\""
par TargetNetwork.visualizer.transportConnectionVisualizer tags "\"\""
par TargetNetwork.visualizer.transportConnectionVisualizer networkNodeVisualizerModule "\"^.networkNodeVisualizer\""
par TargetNetwork.visualizer.transportConnectionVisualizer displayTransportConnections false
par TargetNetwork.visualizer.transportConnectionVisualizer sourceNodeFilter "\"*\""
attr mutable ""
par TargetNetwork.visualizer.transportConnectionVisualizer sourcePortFilter "\"*\""
attr mutable ""
par TargetNetwork.visualizer.transportConnectionVisualizer destinationNodeFilter "\"*\""
attr mutable ""
par TargetNetwork.visualizer.transportConnectionVisualizer destinationPortFilter "\"*\""
attr mutable ""
par TargetNetwork.visualizer.transportConnectionVisualizer icon "\"misc/marker_s\""
par TargetNetwork.visualizer.transportConnectionVisualizer iconColor "\"dark\""
attr enum light,dark
par TargetNetwork.visualizer.transportConnectionVisualizer labelFont "\"<default>\""
par TargetNetwork.visualizer.transportConnectionVisualizer labelColor "\"black\""
par TargetNetwork.visualizer.transportConnectionVisualizer placementHint "\"top\""
par TargetNetwork.visualizer.transportConnectionVisualizer placementPriority 0
par TargetNetwork.visualizer.transportConnectionVisualizer zIndex 4
par TargetNetwork.visualizer.failureProtectionConfigurationVisualizer typename "\"inet.visualizer.canvas.configurator.FailureProtectionConfigurationCanvasVisualizer\""
par TargetNetwork.visualizer.failureProtectionConfigurationVisualizer visualizationTargetModule "\"^.^\""
par TargetNetwork.visualizer.failureProtectionConfigurationVisualizer visualizationSubjectModule "\"^.^\""
par TargetNetwork.visualizer.failureProtectionConfigurationVisualizer tags "\"\""
par TargetNetwork.visualizer.failureProtectionConfigurationVisualizer displayTrees false
par TargetNetwork.visualizer.failureProtectionConfigurationVisualizer lineColor "\"dark\""
attr enum light,dark
par TargetNetwork.visualizer.failureProtectionConfigurationVisualizer lineStyle "\"solid\""
par TargetNetwork.visualizer.failureProtectionConfigurationVisualizer lineWidth 3
par TargetNetwork.visualizer.failureProtectionConfigurationVisualizer lineSmooth false
par TargetNetwork.visualizer.failureProtectionConfigurationVisualizer lineShift 16
par TargetNetwork.visualizer.failureProtectionConfigurationVisualizer lineShiftMode "\"normal\""
par TargetNetwork.visualizer.failureProtectionConfigurationVisualizer lineContactSpacing 3
par TargetNetwork.visualizer.failureProtectionConfigurationVisualizer lineContactMode "\"rectangular\""
attr enum circular,rectangular
par TargetNetwork.visualizer.failureProtectionConfigurationVisualizer failureProtectionConfiguratorModule "\"failureProtectionConfigurator\""
par TargetNetwork.visualizer.failureProtectionConfigurationVisualizer streamFilter "\"*\""
par TargetNetwork.visualizer.failureProtectionConfigurationVisualizer zIndex 3
par TargetNetwork.visualizer.streamRedundancyConfigurationVisualizer typename "\"inet.visualizer.canvas.configurator.StreamRedundancyConfigurationCanvasVisualizer\""
par TargetNetwork.visualizer.streamRedundancyConfigurationVisualizer visualizationTargetModule "\"^.^\""
par TargetNetwork.visualizer.streamRedundancyConfigurationVisualizer visualizationSubjectModule "\"^.^\""
par TargetNetwork.visualizer.streamRedundancyConfigurationVisualizer tags "\"\""
par TargetNetwork.visualizer.streamRedundancyConfigurationVisualizer displayTrees false
par TargetNetwork.visualizer.streamRedundancyConfigurationVisualizer lineColor "\"dark\""
attr enum light,dark
par TargetNetwork.visualizer.streamRedundancyConfigurationVisualizer lineStyle "\"solid\""
par TargetNetwork.visualizer.streamRedundancyConfigurationVisualizer lineWidth 3
par TargetNetwork.visualizer.streamRedundancyConfigurationVisualizer lineSmooth false
par TargetNetwork.visualizer.streamRedundancyConfigurationVisualizer lineShift 16
par TargetNetwork.visualizer.streamRedundancyConfigurationVisualizer lineShiftMode "\"normal\""
par TargetNetwork.visualizer.streamRedundancyConfigurationVisualizer lineContactSpacing 3
par TargetNetwork.visualizer.streamRedundancyConfigurationVisualizer lineContactMode "\"rectangular\""
attr enum circular,rectangular
par TargetNetwork.visualizer.streamRedundancyConfigurationVisualizer streamRedundancyConfiguratorModule "\"streamRedundancyConfigurator\""
par TargetNetwork.visualizer.streamRedundancyConfigurationVisualizer streamFilter "\"*\""
par TargetNetwork.visualizer.streamRedundancyConfigurationVisualizer zIndex 3
par TargetNetwork.visualizer typename "\"inet.visualizer.canvas.integrated.IntegratedCanvasVisualizer\""
par TargetNetwork.configurator typename "\"inet.networklayer.configurator.ipv4.Ipv4NetworkConfigurator\""
par TargetNetwork.configurator minLinkWeight 0.001
par TargetNetwork.configurator configureIsolatedNetworksSeparatly false
par TargetNetwork.configurator config "<config>...</config> at content:1"
par TargetNetwork.configurator assignAddresses true
par TargetNetwork.configurator assignUniqueAddresses true
par TargetNetwork.configurator assignDisjunctSubnetAddresses true
par TargetNetwork.configurator addStaticRoutes true
par TargetNetwork.configurator addDefaultRoutes true
par TargetNetwork.configurator addSubnetRoutes true
par TargetNetwork.configurator addDirectRoutes true
par TargetNetwork.configurator optimizeRoutes true
par TargetNetwork.configurator dumpTopology false
par TargetNetwork.configurator dumpLinks false
par TargetNetwork.configurator dumpAddresses false
par TargetNetwork.configurator dumpRoutes false
par TargetNetwork.configurator dumpConfig "\"\""
par TargetNetwork.macForwardingTableConfigurator typename "\"inet.linklayer.configurator.MacForwardingTableConfigurator\""
par TargetNetwork.dds_cpu.ethg$i[0].channel typename "\"ned.IdealChannel\""
par TargetNetwork.dds_cpu.eth[0].phys$o.channel typename "\"ned.IdealChannel\""
par TargetNetwork.dds_cpu.interfaceTable typename "\"inet.networklayer.common.InterfaceTable\""
par TargetNetwork.dds_cpu.interfaceTable displayAddresses false
par TargetNetwork.dds_cpu.cb typename "\"inet.common.MessageDispatcher\""
par TargetNetwork.dds_cpu.cb displayStringTextFormat "\"processed %p pk (%l)\""
par TargetNetwork.dds_cpu.cb forwardServiceRegistration true
par TargetNetwork.dds_cpu.cb forwardProtocolRegistration true
par TargetNetwork.dds_cpu.bl typename "\"inet.common.MessageDispatcher\""
par TargetNetwork.dds_cpu.bl displayStringTextFormat "\"processed %p pk (%l)\""
par TargetNetwork.dds_cpu.bl forwardServiceRegistration true
par TargetNetwork.dds_cpu.bl forwardProtocolRegistration true
par TargetNetwork.dds_cpu.ethernet typename "\"inet.linklayer.ethernet.basic.EthernetEncapsulation\""
par TargetNetwork.dds_cpu.ethernet registerProtocol true
par TargetNetwork.dds_cpu.ethernet interfaceTableModule "\"TargetNetwork.dds_cpu.interfaceTable\""
par TargetNetwork.dds_cpu.ethernet fcsMode "\"declared\""
attr enum declared,computed
par TargetNetwork.dds_cpu.ethernet stopOperationExtraTime -1s
attr unit s
par TargetNetwork.dds_cpu.ethernet stopOperationTimeout 2s
attr unit s
scalar TargetNetwork.dds_cpu.ethernet decapPk:count 3
attr interpolationmode none
attr recordingmode count
attr source decapPk
attr title "packets decapsulated, count"
scalar TargetNetwork.dds_cpu.ethernet decapPk:sum(packetBytes) 144
attr interpolationmode none
attr recordingmode sum(packetBytes)
attr source decapPk
attr title "packets decapsulated, sum(packetBytes)"
scalar TargetNetwork.dds_cpu.ethernet encapPk:count 16
attr interpolationmode none
attr recordingmode count
attr source encapPk
attr title "packets encapsulated, count"
scalar TargetNetwork.dds_cpu.ethernet encapPk:sum(packetBytes) 20448
attr interpolationmode none
attr recordingmode sum(packetBytes)
attr source encapPk
attr title "packets encapsulated, sum(packetBytes)"
scalar TargetNetwork.dds_cpu.ethernet pauseSent:count 0
attr recordingmode count
attr title "pause sent, count"
scalar TargetNetwork.dds_cpu.ethernet pauseSent:sum 0
attr recordingmode sum
attr title "pause sent, sum"
par TargetNetwork.dds_cpu.li typename "\"inet.common.MessageDispatcher\""
par TargetNetwork.dds_cpu.li displayStringTextFormat "\"processed %p pk (%l)\""
par TargetNetwork.dds_cpu.li forwardServiceRegistration true
par TargetNetwork.dds_cpu.li forwardProtocolRegistration true
par TargetNetwork.dds_cpu.lo[0].upperLayerIn.channel typename "\"ned.IdealChannel\""
par TargetNetwork.dds_cpu.lo[0].lo.upperLayerOut.channel typename "\"ned.IdealChannel\""
par TargetNetwork.dds_cpu.lo[0].lo typename "\"inet.linklayer.loopback.Loopback\""
par TargetNetwork.dds_cpu.lo[0].lo interfaceTableModule "\"TargetNetwork.dds_cpu.interfaceTable\""
par TargetNetwork.dds_cpu.lo[0].lo mtu 4470B
attr unit B
scalar TargetNetwork.dds_cpu.lo[0].lo rcvdPkFromHl:count 0
attr interpolationmode none
attr recordingmode count
attr source packetReceivedFromUpper
attr title "packets received from higher layer, count"
scalar TargetNetwork.dds_cpu.lo[0].lo rcvdPkFromHl:sum(packetBytes) 0
attr interpolationmode none
attr recordingmode sum(packetBytes)
attr source packetReceivedFromUpper
attr title "packets received from higher layer, sum(packetBytes)"
scalar TargetNetwork.dds_cpu.lo[0].lo passedUpPk:count 0
attr interpolationmode none
attr recordingmode count
attr source packetSentToUpper
attr title "packets passed to higher layer, count"
scalar TargetNetwork.dds_cpu.lo[0].lo passedUpPk:sum(packetBytes) 0
attr interpolationmode none
attr recordingmode sum(packetBytes)
attr source packetSentToUpper
attr title "packets passed to higher layer, sum(packetBytes)"
par TargetNetwork.dds_cpu.lo[0] typename "\"inet.linklayer.loopback.LoopbackInterface\""
par TargetNetwork.dds_cpu.lo[0] displayStringTextFormat "\"%a (%i)\\n%m\""
par TargetNetwork.dds_cpu.lo[0] recordPcap false
par TargetNetwork.dds_cpu.lo[0] numPcapRecorders 0
par TargetNetwork.dds_cpu.lo[0] interfaceTableModule "\"TargetNetwork.dds_cpu.interfaceTable\""
scalar TargetNetwork.dds_cpu.lo[0] packetDropInterfaceDown:count 0
attr interpolationmode none
attr recordingmode count
attr source packetDropReasonIsInterfaceDown(packetDropped)
attr title "packet drops: interface down, count"
scalar TargetNetwork.dds_cpu.lo[0] packetDropInterfaceDown:sum(packetBytes) 0
attr interpolationmode none
attr recordingmode sum(packetBytes)
attr source packetDropReasonIsInterfaceDown(packetDropped)
attr title "packet drops: interface down, sum(packetBytes)"
scalar TargetNetwork.dds_cpu.lo[0] packetDropNoCarrier:count 0
attr interpolationmode none
attr recordingmode count
attr source packetDropReasonIsNoCarrier(packetDropped)
attr title "packet drops: no carrier, count"
scalar TargetNetwork.dds_cpu.lo[0] packetDropNoCarrier:sum(packetBytes) 0
attr interpolationmode none
attr recordingmode sum(packetBytes)
attr source packetDropReasonIsNoCarrier(packetDropped)
attr title "packet drops: no carrier, sum(packetBytes)"
par TargetNetwork.dds_cpu.eth[0].mac.phys$o.channel typename "\"ned.IdealChannel\""
par TargetNetwork.dds_cpu.eth[0].phys$i.channel typename "\"ned.IdealChannel\""
par TargetNetwork.dds_cpu.eth[0].upperLayerIn.channel typename "\"ned.IdealChannel\""
par TargetNetwork.dds_cpu.eth[0].mac.upperLayerOut.channel typename "\"ned.IdealChannel\""
par TargetNetwork.dds_cpu.eth[0].queue typename "\"inet.linklayer.ethernet.common.EthernetQueue\""
par TargetNetwork.dds_cpu.eth[0].queue displayStringTextFormat "\"contains %p pk (%l) pushed %u\\npulled %o removed %r dropped %d\""
par TargetNetwork.dds_cpu.eth[0].queue packetCapacity 1000
par TargetNetwork.dds_cpu.eth[0].queue dataCapacity -1b
attr unit b
par TargetNetwork.dds_cpu.eth[0].queue dropperClass "\"inet::queueing::PacketAtCollectionEndDropper\""
par TargetNetwork.dds_cpu.eth[0].queue comparatorClass "\"inet::EthernetFrameTypeComparator\""
par TargetNetwork.dds_cpu.eth[0].queue bufferModule "\"\""
par TargetNetwork.dds_cpu.eth[0].queue portName "\"\""
scalar TargetNetwork.dds_cpu.eth[0].queue queueLength:last 0
attr autoWarmupFilter false
attr interpolationmode sample-hold
attr recordingmode last
attr source "warmup(atomic(constant0(packetPushEnded) + count(packetPushStarted) - count(packetPulled) - count(packetRemoved) - count(packetDropped)))"
attr title "queue length, last"
attr unit pk
scalar TargetNetwork.dds_cpu.eth[0].queue queueLength:max 3
attr autoWarmupFilter false
attr interpolationmode sample-hold
attr recordingmode max
attr source "warmup(atomic(constant0(packetPushEnded) + count(packetPushStarted) - count(packetPulled) - count(packetRemoved) - count(packetDropped)))"
attr title "queue length, max"
attr unit pk
scalar TargetNetwork.dds_cpu.eth[0].queue queueLength:timeavg 0.0035119788921697
attr autoWarmupFilter false
attr interpolationmode sample-hold
attr recordingmode timeavg
attr source "warmup(atomic(constant0(packetPushEnded) + count(packetPushStarted) - count(packetPulled) - count(packetRemoved) - count(packetDropped)))"
attr title "queue length, timeavg"
attr unit pk
scalar TargetNetwork.dds_cpu.eth[0].queue queueBitLength:last 0
attr autoWarmupFilter false
attr interpolationmode sample-hold
attr recordingmode last
attr source "warmup(atomic(constant0(packetPushEnded) + sum(packetLength(packetPushStarted)) - sum(packetLength(packetPulled)) - sum(packetLength(packetRemoved)) - sum(packetLength(packetDropped))))"
attr title "queue bit length, last"
attr unit b
scalar TargetNetwork.dds_cpu.eth[0].queue queueBitLength:max 29328
attr autoWarmupFilter false
attr interpolationmode sample-hold
attr recordingmode max
attr source "warmup(atomic(constant0(packetPushEnded) + sum(packetLength(packetPushStarted)) - sum(packetLength(packetPulled)) - sum(packetLength(packetRemoved)) - sum(packetLength(packetDropped))))"
attr title "queue bit length, max"
attr unit b
scalar TargetNetwork.dds_cpu.eth[0].queue queueBitLength:timeavg 30.174922641522
attr autoWarmupFilter false
attr interpolationmode sample-hold
attr recordingmode timeavg
attr source "warmup(atomic(constant0(packetPushEnded) + sum(packetLength(packetPushStarted)) - sum(packetLength(packetPulled)) - sum(packetLength(packetRemoved)) - sum(packetLength(packetDropped))))"
attr title "queue bit length, timeavg"
attr unit b
statistic TargetNetwork.dds_cpu.eth[0].queue queueingTime:histogram
field count 16
field mean 0.00018456
field stddev 0.00014207435424218
field min 0
field max 0.00036912
field sum 0.00295296
field sqrsum 8.477751296e-07
attr interpolationmode none
attr recordingmode histogram
attr source queueingTime(packetPulled)
attr title "queueing times"
attr unit s
bin	-inf	0
bin	0	4
bin	1e-05	0
bin	2e-05	0
bin	3e-05	0
bin	4e-05	0
bin	5e-05	0
bin	6e-05	0
bin	7e-05	0
bin	8e-05	0
bin	9e-05	0
bin	0.0001	0
bin	0.00011	0
bin	0.00012	4
bin	0.00013	0
bin	0.00014	0
bin	0.00015	0
bin	0.00016	0
bin	0.00017	0
bin	0.00018	0
bin	0.00019	0
bin	0.0002	0
bin	0.00021	0
bin	0.00022	0
bin	0.00023	0
bin	0.00024	4
bin	0.00025	0
bin	0.00026	0
bin	0.00027	0
bin	0.00028	0
bin	0.00029	0
bin	0.0003	0
bin	0.00031	0
bin	0.00032	0
bin	0.00033	0
bin	0.00034	0
bin	0.00035	0
bin	0.00036	4
bin	0.00037	0
bin	0.00038	0
bin	0.00039	0
bin	0.0004	0
bin	0.00041	0
bin	0.00042	0
bin	0.00043	0
bin	0.00044	0
bin	0.00045	0
bin	0.00046	0
bin	0.00047	0
scalar TargetNetwork.dds_cpu.eth[0].queue outgoingPackets:count 16
attr recordingmode count
attr source packetPulled
attr title "outgoing packets, count"
attr unit pk
scalar TargetNetwork.dds_cpu.eth[0].queue outgoingPacketLengths:sum 165888
attr interpolationmode none
attr recordingmode sum
attr source packetLength(packetPulled)
attr title "outgoing packet lengths, sum"
attr unit b
statistic TargetNetwork.dds_cpu.eth[0].queue outgoingPacketLengths:histogram
field count 16
field mean 10368
field stddev 3177.0053824317
field min 5040
field max 12144
field sum 165888
field sqrsum 1871327232
attr interpolationmode none
attr recordingmode histogram
attr source packetLength(packetPulled)
attr title "outgoing packet lengths"
attr unit b
bin	-inf	0
bin	3200	0
bin	3400	0
bin	3600	0
bin	3800	0
bin	4000	0
bin	4200	0
bin	4400	0
bin	4600	0
bin	4800	0
bin	5000	4
bin	5200	0
bin	5400	0
bin	5600	0
bin	5800	0
bin	6000	0
bin	6200	0
bin	6400	0
bin	6600	0
bin	6800	0
bin	7000	0
bin	7200	0
bin	7400	0
bin	7600	0
bin	7800	0
bin	8000	0
bin	8200	0
bin	8400	0
bin	8600	0
bin	8800	0
bin	9000	0
bin	9200	0
bin	9400	0
bin	9600	0
bin	9800	0
bin	10000	0
bin	10200	0
bin	10400	0
bin	10600	0
bin	10800	0
bin	11000	0
bin	11200	0
bin	11400	0
bin	11600	0
bin	11800	0
bin	12000	12
bin	12200	0
bin	12400	0
bin	12600	0
bin	12800	0
bin	13000	0
bin	13200	0
bin	13400	0
bin	13600	0
bin	13800	0
bin	14000	0
statistic TargetNetwork.dds_cpu.eth[0].queue flowQueueingTime:histogram
field count 0
field mean nan
field stddev nan
field min nan
field max nan
field sum 0
field sqrsum 0
attr interpolationmode none
attr recordingmode histogram
attr source queueingTime(demuxFlow(packetPulled))
attr title "flow queueing times"
attr unit s
bin	-inf	0
bin	0	0
bin	1	0
scalar TargetNetwork.dds_cpu.eth[0].queue incomingPackets:count 16
attr recordingmode count
attr source packetPushStarted
attr title "incoming packets, count"
attr unit pk
scalar TargetNetwork.dds_cpu.eth[0].queue incomingPacketLengths:sum 165888
attr interpolationmode none
attr recordingmode sum
attr source packetLength(packetPushStarted)
attr title "incoming packet lengths, sum"
attr unit b
statistic TargetNetwork.dds_cpu.eth[0].queue incomingPacketLengths:histogram
field count 16
field mean 10368
field stddev 3177.0053824317
field min 5040
field max 12144
field sum 165888
field sqrsum 1871327232
attr interpolationmode none
attr recordingmode histogram
attr source packetLength(packetPushStarted)
attr title "incoming packet lengths"
attr unit b
bin	-inf	0
bin	3200	0
bin	3400	0
bin	3600	0
bin	3800	0
bin	4000	0
bin	4200	0
bin	4400	0
bin	4600	0
bin	4800	0
bin	5000	4
bin	5200	0
bin	5400	0
bin	5600	0
bin	5800	0
bin	6000	0
bin	6200	0
bin	6400	0
bin	6600	0
bin	6800	0
bin	7000	0
bin	7200	0
bin	7400	0
bin	7600	0
bin	7800	0
bin	8000	0
bin	8200	0
bin	8400	0
bin	8600	0
bin	8800	0
bin	9000	0
bin	9200	0
bin	9400	0
bin	9600	0
bin	9800	0
bin	10000	0
bin	10200	0
bin	10400	0
bin	10600	0
bin	10800	0
bin	11000	0
bin	11200	0
bin	11400	0
bin	11600	0
bin	11800	0
bin	12000	12
bin	12200	0
bin	12400	0
bin	12600	0
bin	12800	0
bin	13000	0
bin	13200	0
bin	13400	0
bin	13600	0
bin	13800	0
bin	14000	0
scalar TargetNetwork.dds_cpu.eth[0].queue droppedPacketsQueueOverflow:count 0
attr interpolationmode none
attr recordingmode count
attr source packetDropReasonIsQueueOverflow(packetDropped)
attr title "dropped packets: queue overflow, count"
attr unit pk
scalar TargetNetwork.dds_cpu.eth[0].queue droppedPacketLengthsQueueOverflow:sum 0
attr interpolationmode none
attr recordingmode sum
attr source packetLength(packetDropReasonIsQueueOverflow(packetDropped))
attr title "dropped packet lengths: queue overflow, sum"
attr unit b
par TargetNetwork.dds_cpu.eth[0].mac typename "\"inet.linklayer.ethernet.basic.EthernetMac\""
par TargetNetwork.dds_cpu.eth[0].mac interfaceTableModule "\"TargetNetwork.dds_cpu.interfaceTable\""
par TargetNetwork.dds_cpu.eth[0].mac displayStringTextFormat "\"rate: %b\\nsent: %s, rcvd: %r\\nqueue: %q, drop: %d\""
par TargetNetwork.dds_cpu.eth[0].mac sendRawBytes false
par TargetNetwork.dds_cpu.eth[0].mac promiscuous false
par TargetNetwork.dds_cpu.eth[0].mac duplexMode true
par TargetNetwork.dds_cpu.eth[0].mac mtu 1500B
attr unit B
par TargetNetwork.dds_cpu.eth[0].mac fcsMode "\"declared\""
attr enum declared,computed
par TargetNetwork.dds_cpu.eth[0].mac stopOperationExtraTime -1s
attr unit s
par TargetNetwork.dds_cpu.eth[0].mac stopOperationTimeout 2s
attr unit s
scalar TargetNetwork.dds_cpu.eth[0].mac "simulated time" 1
scalar TargetNetwork.dds_cpu.eth[0].mac full-duplex 1
scalar TargetNetwork.dds_cpu.eth[0].mac "frames/sec sent" 16
scalar TargetNetwork.dds_cpu.eth[0].mac "frames/sec rcvd" 3
scalar TargetNetwork.dds_cpu.eth[0].mac "bits/sec sent" 165888
scalar TargetNetwork.dds_cpu.eth[0].mac "bits/sec rcvd" 1584
scalar TargetNetwork.dds_cpu.eth[0].mac "rx channel idle (%)" 99.998224
scalar TargetNetwork.dds_cpu.eth[0].mac "rx channel utilization (%)" 0.001776
scalar TargetNetwork.dds_cpu.eth[0].mac txPk:count 16
attr interpolationmode none
attr recordingmode count
attr source packetSentToLower
attr title "packets transmitted, count"
scalar TargetNetwork.dds_cpu.eth[0].mac txPk:sum(packetBytes) 20736
attr interpolationmode none
attr recordingmode sum(packetBytes)
attr source packetSentToLower
attr title "packets transmitted, sum(packetBytes)"
scalar TargetNetwork.dds_cpu.eth[0].mac packetReceivedFromUpper:count 16
attr interpolationmode none
attr recordingmode count
attr source packetReceivedFromUpper
attr title "packet bytes from higher layer, count"
scalar TargetNetwork.dds_cpu.eth[0].mac packetReceivedFromUpper:sum(packetBytes) 20736
attr interpolationmode none
attr recordingmode sum(packetBytes)
attr source packetReceivedFromUpper
attr title "packet bytes from higher layer, sum(packetBytes)"
scalar TargetNetwork.dds_cpu.eth[0].mac passedUpPk:count 3
attr interpolationmode none
attr recordingmode count
attr source packetSentToUpper
attr title "packets passed to higher layer, count"
scalar TargetNetwork.dds_cpu.eth[0].mac passedUpPk:sum(packetBytes) 198
attr interpolationmode none
attr recordingmode sum(packetBytes)
attr source packetSentToUpper
attr title "packets passed to higher layer, sum(packetBytes)"
scalar TargetNetwork.dds_cpu.eth[0].mac packetDropIncorrectlyReceived:count 0
attr interpolationmode none
attr recordingmode count
attr source packetDropReasonIsIncorrectlyReceived(packetDropped)
attr title "packet drop: incorrectly received, count"
scalar TargetNetwork.dds_cpu.eth[0].mac packetDropIncorrectlyReceived:sum(packetBytes) 0
attr interpolationmode none
attr recordingmode sum(packetBytes)
attr source packetDropReasonIsIncorrectlyReceived(packetDropped)
attr title "packet drop: incorrectly received, sum(packetBytes)"
scalar TargetNetwork.dds_cpu.eth[0].mac packetDropInterfaceDown:count 0
attr interpolationmode none
attr recordingmode count
attr source packetDropReasonIsInterfaceDown(packetDropped)
attr title "packet drop: interface down, count"
scalar TargetNetwork.dds_cpu.eth[0].mac packetDropInterfaceDown:sum(packetBytes) 0
attr interpolationmode none
attr recordingmode sum(packetBytes)
attr source packetDropReasonIsInterfaceDown(packetDropped)
attr title "packet drop: interface down, sum(packetBytes)"
scalar TargetNetwork.dds_cpu.eth[0].mac packetDropNotAddressedToUs:count 0
attr interpolationmode none
attr recordingmode count
attr source packetDropReasonIsNotAddressedToUs(packetDropped)
attr title "packet drop: not addressed to us, count"
scalar TargetNetwork.dds_cpu.eth[0].mac packetDropNotAddressedToUs:sum(packetBytes) 0
attr interpolationmode none
attr recordingmode sum(packetBytes)
attr source packetDropReasonIsNotAddressedToUs(packetDropped)
attr title "packet drop: not addressed to us, sum(packetBytes)"
scalar TargetNetwork.dds_cpu.eth[0].mac rxPausePkUnits:count 0
attr interpolationmode none
attr recordingmode count
attr title "pause units received, count"
scalar TargetNetwork.dds_cpu.eth[0].mac rxPausePkUnits:sum 0
attr interpolationmode none
attr recordingmode sum
attr title "pause units received, sum"
scalar TargetNetwork.dds_cpu.eth[0].mac txPausePkUnits:count 0
attr interpolationmode none
attr recordingmode count
attr title "pause units sent, count"
scalar TargetNetwork.dds_cpu.eth[0].mac txPausePkUnits:sum 0
attr interpolationmode none
attr recordingmode sum
attr title "pause units sent, sum"
scalar TargetNetwork.dds_cpu.eth[0].mac rxPkOk:count 3
attr interpolationmode none
attr recordingmode count
attr source rxPkOk
attr title "packets received OK, count"
scalar TargetNetwork.dds_cpu.eth[0].mac rxPkOk:sum(packetBytes) 198
attr interpolationmode none
attr recordingmode sum(packetBytes)
attr source rxPkOk
attr title "packets received OK, sum(packetBytes)"
par TargetNetwork.dds_cpu.eth[0] typename "\"inet.linklayer.ethernet.EthernetInterface\""
par TargetNetwork.dds_cpu.eth[0] displayStringTextFormat "\"%a (%i)\\n%m\""
par TargetNetwork.dds_cpu.eth[0] recordPcap false
par TargetNetwork.dds_cpu.eth[0] numPcapRecorders 0
par TargetNetwork.dds_cpu.eth[0] interfaceTableModule "\"TargetNetwork.dds_cpu.interfaceTable\""
par TargetNetwork.dds_cpu.eth[0] protocol "\"ethernetmac\""
par TargetNetwork.dds_cpu.eth[0] address "\"0A-AA-00-00-00-01\""
attr mutable ""
par TargetNetwork.dds_cpu.eth[0] duplexMode true
par TargetNetwork.dds_cpu.eth[0] csmacdSupport false
par TargetNetwork.dds_cpu.eth[0] bitrate 0bps
attr unit bps
par TargetNetwork.dds_cpu.eth[0] fcsMode "\"declared\""
attr enum declared,computed
scalar TargetNetwork.dds_cpu.eth[0] packetDropInterfaceDown:count 0
attr interpolationmode none
attr recordingmode count
attr source packetDropReasonIsInterfaceDown(packetDropped)
attr title "packet drops: interface down, count"
scalar TargetNetwork.dds_cpu.eth[0] packetDropInterfaceDown:sum(packetBytes) 0
attr interpolationmode none
attr recordingmode sum(packetBytes)
attr source packetDropReasonIsInterfaceDown(packetDropped)
attr title "packet drops: interface down, sum(packetBytes)"
scalar TargetNetwork.dds_cpu.eth[0] packetDropNoCarrier:count 0
attr interpolationmode none
attr recordingmode count
attr source packetDropReasonIsNoCarrier(packetDropped)
attr title "packet drops: no carrier, count"
scalar TargetNetwork.dds_cpu.eth[0] packetDropNoCarrier:sum(packetBytes) 0
attr interpolationmode none
attr recordingmode sum(packetBytes)
attr source packetDropReasonIsNoCarrier(packetDropped)
attr title "packet drops: no carrier, sum(packetBytes)"
par TargetNetwork.dds_cpu.ipv4.transportIn.channel typename "\"ned.IdealChannel\""
par TargetNetwork.dds_cpu.ipv4.up.out[0].channel typename "\"ned.IdealChannel\""
par TargetNetwork.dds_cpu.ipv4.lp.out[2].channel typename "\"ned.IdealChannel\""
par TargetNetwork.dds_cpu.ipv4.ifIn.channel typename "\"ned.IdealChannel\""
par TargetNetwork.dds_cpu.ipv4.configurator typename "\"inet.networklayer.configurator.ipv4.Ipv4NodeConfigurator\""
par TargetNetwork.dds_cpu.ipv4.configurator interfaceTableModule "\"TargetNetwork.dds_cpu.interfaceTable\""
par TargetNetwork.dds_cpu.ipv4.configurator routingTableModule "\"TargetNetwork.dds_cpu.ipv4.routingTable\""
par TargetNetwork.dds_cpu.ipv4.configurator networkConfiguratorModule "\"configurator\""
par TargetNetwork.dds_cpu.ipv4.configurator configureRoutingTable true
[...]
field min 592
field max 8432
field sum 26480
field sqrsum 213996800
attr interpolationmode none
attr recordingmode histogram
attr source "packetLength(merge(packetPushedOut, packetPulledOut))"
attr title "outgoing packet lengths"
attr unit b
bin	-inf	0
bin	0	0
bin	200	0
bin	400	2
bin	600	0
bin	800	0
bin	1000	0
bin	1200	0
bin	1400	0
bin	1600	0
bin	1800	0
bin	2000	0
bin	2200	0
bin	2400	0
bin	2600	0
bin	2800	0
bin	3000	0
bin	3200	0
bin	3400	0
bin	3600	0
bin	3800	0
bin	4000	0
bin	4200	0
bin	4400	0
bin	4600	0
bin	4800	0
bin	5000	0
bin	5200	0
bin	5400	0
bin	5600	0
bin	5800	0
bin	6000	0
bin	6200	0
bin	6400	0
bin	6600	0
bin	6800	0
bin	7000	0
bin	7200	0
bin	7400	0
bin	7600	0
bin	7800	0
bin	8000	0
bin	8200	0
bin	8400	3
bin	8600	0
bin	8800	0
bin	9000	0
bin	9200	0
bin	9400	0
bin	9600	0
bin	9800	0
bin	10000	0
bin	10200	0
bin	10400	0
scalar TargetNetwork.dds_switch2.eth[3].phyLayer.outboundEmitter flowOutgoingPacketLengths:sum 0
attr interpolationmode none
attr recordingmode sum
attr source "packetLength(demuxFlow(merge(packetPushedOut, packetPulledOut)))"
attr title "flow specific outgoing packet lengths, sum"
attr unit b
statistic TargetNetwork.dds_switch2.eth[3].phyLayer.outboundEmitter flowOutgoingPacketLengths:histogram
field count 0
field mean nan
field stddev nan
field min nan
field max nan
field sum 0
field sqrsum 0
attr interpolationmode none
attr recordingmode histogram
attr source "packetLength(demuxFlow(merge(packetPushedOut, packetPulledOut)))"
attr title "flow specific outgoing packet lengths"
attr unit b
bin	-inf	0
bin	0	0
bin	1	0
scalar TargetNetwork.dds_switch2.eth[3].phyLayer.outboundEmitter incomingPackets:count 5
attr recordingmode count
attr source "merge(packetPushedIn, packetPulledIn)"
attr title "incoming packets, count"
attr unit pk
scalar TargetNetwork.dds_switch2.eth[3].phyLayer.outboundEmitter incomingPacketLengths:sum 26480
attr interpolationmode none
attr recordingmode sum
attr source "packetLength(merge(packetPushedIn, packetPulledIn))"
attr title "incoming packet lengths, sum"
attr unit b
statistic TargetNetwork.dds_switch2.eth[3].phyLayer.outboundEmitter incomingPacketLengths:histogram
field count 5
field mean 5296
field stddev 4294.1448508405
field min 592
field max 8432
field sum 26480
field sqrsum 213996800
attr interpolationmode none
attr recordingmode histogram
attr source "packetLength(merge(packetPushedIn, packetPulledIn))"
attr title "incoming packet lengths"
attr unit b
bin	-inf	0
bin	0	0
bin	200	0
bin	400	2
bin	600	0
bin	800	0
bin	1000	0
bin	1200	0
bin	1400	0
bin	1600	0
bin	1800	0
bin	2000	0
bin	2200	0
bin	2400	0
bin	2600	0
bin	2800	0
bin	3000	0
bin	3200	0
bin	3400	0
bin	3600	0
bin	3800	0
bin	4000	0
bin	4200	0
bin	4400	0
bin	4600	0
bin	4800	0
bin	5000	0
bin	5200	0
bin	5400	0
bin	5600	0
bin	5800	0
bin	6000	0
bin	6200	0
bin	6400	0
bin	6600	0
bin	6800	0
bin	7000	0
bin	7200	0
bin	7400	0
bin	7600	0
bin	7800	0
bin	8000	0
bin	8200	0
bin	8400	3
bin	8600	0
bin	8800	0
bin	9000	0
bin	9200	0
bin	9400	0
bin	9600	0
bin	9800	0
bin	10000	0
bin	10200	0
bin	10400	0
scalar TargetNetwork.dds_switch2.eth[3].phyLayer.outboundEmitter flowIncomingPacketLengths:sum 0
attr interpolationmode none
attr recordingmode sum
attr source "packetLength(demuxFlow(merge(packetPushedIn, packetPulledIn)))"
attr title "flow specific incoming packet lengths, sum"
attr unit b
statistic TargetNetwork.dds_switch2.eth[3].phyLayer.outboundEmitter flowIncomingPacketLengths:histogram
field count 0
field mean nan
field stddev nan
field min nan
field max nan
field sum 0
field sqrsum 0
attr interpolationmode none
attr recordingmode histogram
attr source "packetLength(demuxFlow(merge(packetPushedIn, packetPulledIn)))"
attr title "flow specific incoming packet lengths"
attr unit b
bin	-inf	0
bin	0	0
bin	1	0
par TargetNetwork.dds_switch2.eth[3].phyLayer.transmitter typename "\"inet.protocolelement.transceiver.PacketTransmitter\""
par TargetNetwork.dds_switch2.eth[3].phyLayer.transmitter displayStringTextFormat "\"processed %p pk (%l)\""
par TargetNetwork.dds_switch2.eth[3].phyLayer.transmitter clockModule "\"\""
par TargetNetwork.dds_switch2.eth[3].phyLayer.transmitter datarate this.bitrate
attr unit bps
scalar TargetNetwork.dds_switch2.eth[3].phyLayer.transmitter propagationTime 0
statistic TargetNetwork.dds_switch2.eth[3].phyLayer.transmitter utilization:histogram
field count 9
field mean 0.020053333333333
field stddev 0.036641310020249
field min 0
field max 0.08432
field sum 0.18048
field sqrsum 0.0143599104
attr interpolationmode linear
attr recordingmode histogram
attr source "100 * utilization(count(transmissionStarted) - count(transmissionEnded))"
attr title utilization
attr unit %
bin	-inf	0
bin	0	6
bin	0.002	0
bin	0.004	0
bin	0.006	0
bin	0.008	0
bin	0.01	1
bin	0.012	0
bin	0.014	0
bin	0.016	0
bin	0.018	0
bin	0.02	0
bin	0.022	0
bin	0.024	0
bin	0.026	0
bin	0.028	0
bin	0.03	0
bin	0.032	0
bin	0.034	0
bin	0.036	0
bin	0.038	0
bin	0.04	0
bin	0.042	0
bin	0.044	0
bin	0.046	0
bin	0.048	0
bin	0.05	0
bin	0.052	0
bin	0.054	0
bin	0.056	0
bin	0.058	0
bin	0.06	0
bin	0.062	0
bin	0.064	0
bin	0.066	0
bin	0.068	0
bin	0.07	0
bin	0.072	0
bin	0.074	0
bin	0.076	0
bin	0.078	0
bin	0.08	0
bin	0.082	0
bin	0.084	2
bin	0.086	0
bin	0.088	0
bin	0.09	0
bin	0.092	0
bin	0.094	0
bin	0.096	0
bin	0.098	0
bin	0.1	0
bin	0.102	0
bin	0.104	0
bin	0.106	0
statistic TargetNetwork.dds_switch2.eth[3].phyLayer.transmitter transmissionTime:histogram
field count 5
field mean 5.296e-05
field stddev 4.2941448508405e-05
field min 5.92e-06
field max 8.432e-05
field sum 0.0002648
field sqrsum 2.139968e-08
attr interpolationmode none
attr recordingmode histogram
attr source packetDuration(transmissionEnded)
attr title "transmission time"
attr unit s
bin	-inf	0
bin	0	0
bin	2e-06	0
bin	4e-06	2
bin	6e-06	0
bin	8e-06	0
bin	1e-05	0
bin	1.2e-05	0
bin	1.4e-05	0
bin	1.6e-05	0
bin	1.8e-05	0
bin	2e-05	0
bin	2.2e-05	0
bin	2.4e-05	0
bin	2.6e-05	0
bin	2.8e-05	0
bin	3e-05	0
bin	3.2e-05	0
bin	3.4e-05	0
bin	3.6e-05	0
bin	3.8e-05	0
bin	4e-05	0
bin	4.2e-05	0
bin	4.4e-05	0
bin	4.6e-05	0
bin	4.8e-05	0
bin	5e-05	0
bin	5.2e-05	0
bin	5.4e-05	0
bin	5.6e-05	0
bin	5.8e-05	0
bin	6e-05	0
bin	6.2e-05	0
bin	6.4e-05	0
bin	6.6e-05	0
bin	6.8e-05	0
bin	7e-05	0
bin	7.2e-05	0
bin	7.4e-05	0
bin	7.6e-05	0
bin	7.8e-05	0
bin	8e-05	0
bin	8.2e-05	0
bin	8.4e-05	3
bin	8.6e-05	0
bin	8.8e-05	0
bin	9e-05	0
bin	9.2e-05	0
bin	9.4e-05	0
bin	9.6e-05	0
bin	9.8e-05	0
bin	0.0001	0
bin	0.000102	0
bin	0.000104	0
statistic TargetNetwork.dds_switch2.eth[3].phyLayer.transmitter flowTransmissionTime:histogram
field count 0
field mean nan
field stddev nan
field min nan
field max nan
field sum 0
field sqrsum 0
attr interpolationmode none
attr recordingmode histogram
attr source packetDuration(demuxFlow(transmissionEnded))
attr title "flow transmission time"
attr unit s
bin	-inf	0
bin	0	0
bin	1	0
par TargetNetwork.dds_switch2.eth[3].phyLayer.phyHeaderChecker typename "\"inet.physicallayer.wired.ethernet.EthernetPhyHeaderChecker\""
par TargetNetwork.dds_switch2.eth[3].phyLayer.phyHeaderChecker displayStringTextFormat "\"dropped %d/%p pk (%k/%l)\""
par TargetNetwork.dds_switch2.eth[3].phyLayer.phyHeaderChecker backpressure false
scalar TargetNetwork.dds_switch2.eth[3].phyLayer.phyHeaderChecker outgoingPackets:count 1
attr recordingmode count
attr source "merge(packetPushedOut, packetPulledOut)"
attr title "outgoing packets, count"
attr unit pk
scalar TargetNetwork.dds_switch2.eth[3].phyLayer.phyHeaderChecker outgoingPacketLengths:sum 528
attr interpolationmode none
attr recordingmode sum
attr source "packetLength(merge(packetPushedOut, packetPulledOut))"
attr title "outgoing packet lengths, sum"
attr unit b
statistic TargetNetwork.dds_switch2.eth[3].phyLayer.phyHeaderChecker outgoingPacketLengths:histogram
field count 1
field mean 528
field stddev nan
field min 528
field max 528
field sum 528
field sqrsum 278784
attr interpolationmode none
attr recordingmode histogram
attr source "packetLength(merge(packetPushedOut, packetPulledOut))"
attr title "outgoing packet lengths"
attr unit b
bin	-inf	0
bin	527	0
bin	528	1
bin	529	0
scalar TargetNetwork.dds_switch2.eth[3].phyLayer.phyHeaderChecker flowOutgoingPacketLengths:sum 0
attr interpolationmode none
attr recordingmode sum
attr source "packetLength(demuxFlow(merge(packetPushedOut, packetPulledOut)))"
attr title "flow specific outgoing packet lengths, sum"
attr unit b
statistic TargetNetwork.dds_switch2.eth[3].phyLayer.phyHeaderChecker flowOutgoingPacketLengths:histogram
field count 0
field mean nan
field stddev nan
field min nan
field max nan
field sum 0
field sqrsum 0
attr interpolationmode none
attr recordingmode histogram
attr source "packetLength(demuxFlow(merge(packetPushedOut, packetPulledOut)))"
attr title "flow specific outgoing packet lengths"
attr unit b
bin	-inf	0
bin	0	0
bin	1	0
scalar TargetNetwork.dds_switch2.eth[3].phyLayer.phyHeaderChecker incomingPackets:count 1
attr recordingmode count
attr source "merge(packetPushedIn, packetPulledIn)"
attr title "incoming packets, count"
attr unit pk
scalar TargetNetwork.dds_switch2.eth[3].phyLayer.phyHeaderChecker incomingPacketLengths:sum 592
attr interpolationmode none
attr recordingmode sum
attr source "packetLength(merge(packetPushedIn, packetPulledIn))"
attr title "incoming packet lengths, sum"
attr unit b
statistic TargetNetwork.dds_switch2.eth[3].phyLayer.phyHeaderChecker incomingPacketLengths:histogram
field count 1
field mean 592
field stddev nan
field min 592
field max 592
field sum 592
field sqrsum 350464
attr interpolationmode none
attr recordingmode histogram
attr source "packetLength(merge(packetPushedIn, packetPulledIn))"
attr title "incoming packet lengths"
attr unit b
bin	-inf	0
bin	591	0
bin	592	1
bin	593	0
scalar TargetNetwork.dds_switch2.eth[3].phyLayer.phyHeaderChecker flowIncomingPacketLengths:sum 0
attr interpolationmode none
attr recordingmode sum
attr source "packetLength(demuxFlow(merge(packetPushedIn, packetPulledIn)))"
attr title "flow specific incoming packet lengths, sum"
attr unit b
statistic TargetNetwork.dds_switch2.eth[3].phyLayer.phyHeaderChecker flowIncomingPacketLengths:histogram
field count 0
field mean nan
field stddev nan
field min nan
field max nan
field sum 0
field sqrsum 0
attr interpolationmode none
attr recordingmode histogram
attr source "packetLength(demuxFlow(merge(packetPushedIn, packetPulledIn)))"
attr title "flow specific incoming packet lengths"
attr unit b
bin	-inf	0
bin	0	0
bin	1	0
scalar TargetNetwork.dds_switch2.eth[3].phyLayer.phyHeaderChecker droppedPackets:count 0
attr recordingmode count
attr source packetDropped
attr title "dropped packets, count"
attr unit pk
scalar TargetNetwork.dds_switch2.eth[3].phyLayer.phyHeaderChecker droppedPacketLengths:sum 0
attr interpolationmode none
attr recordingmode sum
attr source packetLength(packetDropped)
attr title "dropped packet lengths, sum"
attr unit b
statistic TargetNetwork.dds_switch2.eth[3].phyLayer.phyHeaderChecker droppedPacketLengths:histogram
field count 0
field mean nan
field stddev nan
field min nan
field max nan
field sum 0
field sqrsum 0
attr interpolationmode none
attr recordingmode histogram
attr source packetLength(packetDropped)
attr title "dropped packet lengths"
attr unit b
bin	-inf	0
bin	0	0
bin	1	0
scalar TargetNetwork.dds_switch2.eth[3].phyLayer.phyHeaderChecker flowDroppedPacketLengths:sum 0
attr interpolationmode none
attr recordingmode sum
attr source packetLength(demuxFlow(packetDropped))
attr title "flow specific dropped packet lengths, sum"
attr unit b
statistic TargetNetwork.dds_switch2.eth[3].phyLayer.phyHeaderChecker flowDroppedPacketLengths:histogram
field count 0
field mean nan
field stddev nan
field min nan
field max nan
field sum 0
field sqrsum 0
attr interpolationmode none
attr recordingmode histogram
attr source packetLength(demuxFlow(packetDropped))
attr title "flow specific dropped packet lengths"
attr unit b
bin	-inf	0
bin	0	0
bin	1	0
par TargetNetwork.dds_switch2.eth[3].phyLayer.inboundEmitter typename "\"inet.protocolelement.common.PacketEmitter\""
par TargetNetwork.dds_switch2.eth[3].phyLayer.inboundEmitter displayStringTextFormat "\"processed %p pk (%l)\""
par TargetNetwork.dds_switch2.eth[3].phyLayer.inboundEmitter packetFilter "(omnetpp::cValueHolder)holder: \"*\""
par TargetNetwork.dds_switch2.eth[3].phyLayer.inboundEmitter direction "\"inbound\""
attr enum undefined,inbound,outbound
par TargetNetwork.dds_switch2.eth[3].phyLayer.inboundEmitter signalName "\"packetReceivedFromLower\""
scalar TargetNetwork.dds_switch2.eth[3].phyLayer.inboundEmitter outgoingPackets:count 1
attr recordingmode count
attr source "merge(packetPushedOut, packetPulledOut)"
attr title "outgoing packets, count"
attr unit pk
scalar TargetNetwork.dds_switch2.eth[3].phyLayer.inboundEmitter outgoingPacketLengths:sum 592
attr interpolationmode none
attr recordingmode sum
attr source "packetLength(merge(packetPushedOut, packetPulledOut))"
attr title "outgoing packet lengths, sum"
attr unit b
statistic TargetNetwork.dds_switch2.eth[3].phyLayer.inboundEmitter outgoingPacketLengths:histogram
field count 1
field mean 592
field stddev nan
field min 592
field max 592
field sum 592
field sqrsum 350464
attr interpolationmode none
attr recordingmode histogram
attr source "packetLength(merge(packetPushedOut, packetPulledOut))"
attr title "outgoing packet lengths"
attr unit b
bin	-inf	0
bin	591	0
bin	592	1
bin	593	0
scalar TargetNetwork.dds_switch2.eth[3].phyLayer.inboundEmitter flowOutgoingPacketLengths:sum 0
attr interpolationmode none
attr recordingmode sum
attr source "packetLength(demuxFlow(merge(packetPushedOut, packetPulledOut)))"
attr title "flow specific outgoing packet lengths, sum"
attr unit b
statistic TargetNetwork.dds_switch2.eth[3].phyLayer.inboundEmitter flowOutgoingPacketLengths:histogram
field count 0
field mean nan
field stddev nan
field min nan
field max nan
field sum 0
field sqrsum 0
attr interpolationmode none
attr recordingmode histogram
attr source "packetLength(demuxFlow(merge(packetPushedOut, packetPulledOut)))"
attr title "flow specific outgoing packet lengths"
attr unit b
bin	-inf	0
bin	0	0
bin	1	0
scalar TargetNetwork.dds_switch2.eth[3].phyLayer.inboundEmitter incomingPackets:count 1
attr recordingmode count
attr source "merge(packetPushedIn, packetPulledIn)"
attr title "incoming packets, count"
attr unit pk
scalar TargetNetwork.dds_switch2.eth[3].phyLayer.inboundEmitter incomingPacketLengths:sum 592
attr interpolationmode none
attr recordingmode sum
attr source "packetLength(merge(packetPushedIn, packetPulledIn))"
attr title "incoming packet lengths, sum"
attr unit b
statistic TargetNetwork.dds_switch2.eth[3].phyLayer.inboundEmitter incomingPacketLengths:histogram
field count 1
field mean 592
field stddev nan
field min 592
field max 592
field sum 592
field sqrsum 350464
attr interpolationmode none
attr recordingmode histogram
attr source "packetLength(merge(packetPushedIn, packetPulledIn))"
attr title "incoming packet lengths"
attr unit b
bin	-inf	0
bin	591	0
bin	592	1
bin	593	0
scalar TargetNetwork.dds_switch2.eth[3].phyLayer.inboundEmitter flowIncomingPacketLengths:sum 0
attr interpolationmode none
attr recordingmode sum
attr source "packetLength(demuxFlow(merge(packetPushedIn, packetPulledIn)))"
attr title "flow specific incoming packet lengths, sum"
attr unit b
statistic TargetNetwork.dds_switch2.eth[3].phyLayer.inboundEmitter flowIncomingPacketLengths:histogram
field count 0
field mean nan
field stddev nan
field min nan
field max nan
field sum 0
field sqrsum 0
attr interpolationmode none
attr recordingmode histogram
attr source "packetLength(demuxFlow(merge(packetPushedIn, packetPulledIn)))"
attr title "flow specific incoming packet lengths"
attr unit b
bin	-inf	0
bin	0	0
bin	1	0
par TargetNetwork.dds_switch2.eth[3].phyLayer.receiver typename "\"inet.protocolelement.transceiver.PacketReceiver\""
par TargetNetwork.dds_switch2.eth[3].phyLayer.receiver displayStringTextFormat "\"processed %p pk (%l)\""
par TargetNetwork.dds_switch2.eth[3].phyLayer.receiver datarate 1e+08bps
attr unit bps
statistic TargetNetwork.dds_switch2.eth[3].phyLayer.receiver receptionTime:histogram
field count 1
field mean 5.92e-06
field stddev nan
field min 5.92e-06
field max 5.92e-06
field sum 5.92e-06
field sqrsum 3.50464e-11
attr interpolationmode none
attr recordingmode histogram
attr source packetDuration(receptionEnded)
attr title "reception time"
attr unit s
bin	-inf	0
bin	0	1
bin	0.01	0
bin	0.02	0
bin	0.03	0
bin	0.04	0
bin	0.05	0
bin	0.06	0
bin	0.07	0
bin	0.08	0
bin	0.09	0
bin	0.1	0
bin	0.11	0
bin	0.12	0
bin	0.13	0
bin	0.14	0
bin	0.15	0
bin	0.16	0
bin	0.17	0
bin	0.18	0
bin	0.19	0
bin	0.2	0
bin	0.21	0
bin	0.22	0
bin	0.23	0
bin	0.24	0
bin	0.25	0
bin	0.26	0
bin	0.27	0
bin	0.28	0
bin	0.29	0
bin	0.3	0
bin	0.31	0
bin	0.32	0
bin	0.33	0
bin	0.34	0
bin	0.35	0
bin	0.36	0
bin	0.37	0
bin	0.38	0
bin	0.39	0
bin	0.4	0
bin	0.41	0
bin	0.42	0
bin	0.43	0
bin	0.44	0
bin	0.45	0
bin	0.46	0
bin	0.47	0
bin	0.48	0
bin	0.49	0
bin	0.5	0
bin	0.51	0
statistic TargetNetwork.dds_switch2.eth[3].phyLayer.receiver flowReceptionTime:histogram
field count 0
field mean nan
field stddev nan
field min nan
field max nan
field sum 0
field sqrsum 0
attr interpolationmode none
attr recordingmode histogram
attr source packetDuration(demuxFlow(receptionEnded))
attr title "flow reception time"
attr unit s
bin	-inf	0
bin	0	0
bin	1	0
par TargetNetwork.dds_switch2.eth[3].phyLayer typename "\"inet.physicallayer.wired.ethernet.EthernetPhyLayer\""
par TargetNetwork.dds_switch2.eth[3].phyLayer bitrate this.bitrate
attr unit bps
par TargetNetwork.dds_switch2.eth[3] typename "\"inet.linklayer.ethernet.LayeredEthernetInterface\""
par TargetNetwork.dds_switch2.eth[3] displayStringTextFormat "\"%a (%i)\\n%m\""
par TargetNetwork.dds_switch2.eth[3] recordPcap false
par TargetNetwork.dds_switch2.eth[3] numPcapRecorders 0
par TargetNetwork.dds_switch2.eth[3] protocol "\"ethernetmac\""
par TargetNetwork.dds_switch2.eth[3] broadcast true
par TargetNetwork.dds_switch2.eth[3] multicast true
par TargetNetwork.dds_switch2.eth[3] address "\"0A-AA-00-00-00-10\""
attr mutable ""
par TargetNetwork.dds_switch2.eth[3] bitrate 1e+08bps
attr unit bps
par TargetNetwork.dds_switch2.eth[3] mtu 1500B
attr unit B
par TargetNetwork.dds_switch2.eth[3] interfaceTableModule "\"TargetNetwork.dds_switch2.interfaceTable\""
scalar TargetNetwork.dds_switch2.eth[3] packetDropInterfaceDown:count 0
attr interpolationmode none
attr recordingmode count
attr source packetDropReasonIsInterfaceDown(packetDropped)
attr title "packet drops: interface down, count"
scalar TargetNetwork.dds_switch2.eth[3] packetDropInterfaceDown:sum(packetBytes) 0
attr interpolationmode none
attr recordingmode sum(packetBytes)
attr source packetDropReasonIsInterfaceDown(packetDropped)
attr title "packet drops: interface down, sum(packetBytes)"
scalar TargetNetwork.dds_switch2.eth[3] packetDropNoCarrier:count 0
attr interpolationmode none
attr recordingmode count
attr source packetDropReasonIsNoCarrier(packetDropped)
attr title "packet drops: no carrier, count"
scalar TargetNetwork.dds_switch2.eth[3] packetDropNoCarrier:sum(packetBytes) 0
attr interpolationmode none
attr recordingmode sum(packetBytes)
attr source packetDropReasonIsNoCarrier(packetDropped)
attr title "packet drops: no carrier, sum(packetBytes)"
par TargetNetwork.dds_switch2 typename "\"inet.node.ethernet.EthernetSwitch\""
par TargetNetwork.dds_switch2 recordPcap false
par TargetNetwork.dds_switch2 numPcapRecorders 0
par TargetNetwork.dds_switch2 numApps 0
par TargetNetwork.dds_switch2 hasStatus false
par TargetNetwork.dds_switch2 hasStp false
par TargetNetwork.dds_switch2 hasGptp false
par TargetNetwork.dds_switch2 hasCutthroughSwitching false
par TargetNetwork.dds_switch2 fcsMode "\"declared\""
attr enum declared,computed
par TargetNetwork.dds_switch2 spanningTreeProtocol "\"Stp\""
par TargetNetwork.dds_switch2 numEthInterfaces 0
par TargetNetwork typename "\"TargetNetwork\""
par TargetNetwork recordPcap false
par TargetNetwork numPcapRecorders 0
par TargetNetwork hasGlobalArp true

