version 3
run General-0-20241129-19:03:33-18068
attr configname General
attr datetime 20241129-19:03:33
attr datetimef 20241129-190333
attr experiment General
attr inifile D:/jobSimQt/project/Parameters.ini
attr iterationvars ""
attr iterationvarsd ""
attr iterationvarsf ""
attr measurement ""
attr network TargetNetwork
attr processid 18068
attr repetition 0
attr replication #0
attr resultdir results
attr runnumber 0
attr seedset 0
config network TargetNetwork
config sim-time-limit 1.5s
config **.statistic-recording false
config *.*.ethernet.typename EthernetLayer
config *.*.eth[*].typename LayeredEthernetInterface
config *.*.eth[*].bitrate 100Mbps
config **.eth[*].queue.typename DropTailQueue
config **.eth[*].queue.packetCapacity 20
config **.forwarding false
config **.arp.retryTimeout 1s
config **.arp.retryCount 3
config **.arp.cacheTimeout 100s
config **.tcp.tcpAlgorithmClass "\"TcpReno\""
config **.tcp.typename Tcp
config **.tcp.advertisedWindow 65535
config **.tcp.delayedAcksEnabled false
config **.tcp.nagleEnabled true
config **.tcp.limitedTransmitEnabled false
config **.tcp.increasedIWEnabled false
config **.tcp.sackSupport false
config **.tcp.windowScalingSupport false
config **.tcp.timestampSupport false
config **.tcp.mss 1452
config *.configurator.config "xml(\"<config>\\n\" + \"<interface hosts='udp_tcp' address='192.168.0.1' netmask='255.255.255.x'/>\\n\" + \"<interface hosts='udp_tcp2' address='192.168.0.2' netmask='255.255.255.x'/>\\n\" + \"<interface hosts='udp_tcp3' address='192.168.0.3' netmask='255.255.255.x'/>\\n\" + \"</config>\")"
config *.udp_tcp.numApps 1
config *.udp_tcp.app[0].typename DDSPublishApp
config *.udp_tcp.app[0].io.receiveBroadcast true
config *.udp_tcp.app[0].io.publish "\"Topic1\""
config *.udp_tcp.app[0].io.destPort 1000
config *.udp_tcp.app[0].io.historyCacheLength 1
config *.udp_tcp.ipv4.ip.limitedBroadcast true
config *.udp_tcp.app[0].source.packetLength 100B
config *.udp_tcp.app[0].source.productionInterval exponential(2ms)
config *.udp_tcp.app[0].sink.typename ""
config *.udp_tcp2.numApps 1
config *.udp_tcp2.app[0].typename DDSSubscribeApp
config *.udp_tcp2.app[0].source.subscribe "\"Topic1@1000\""
config *.udp_tcp2.app[0].io.localPort 1000
config *.udp_tcp2.app[0].io.receiverBufferLength 10
config *.udp_tcp2.app[0].io.nackCountdown 0.25ms
config *.udp_tcp2.app[0].source.packetLength 20B
config *.udp_tcp2.ipv4.ip.limitedBroadcast true
config *.udp_tcp2.app[0].sink.flowName "\"default\""
config *.udp_tcp3.numApps 1
config *.udp_tcp3.app[0].typename DDSSubscribeApp
config *.udp_tcp3.app[0].source.subscribe "\"Topic1@1000\""
config *.udp_tcp3.app[0].io.localPort 1000
config *.udp_tcp3.app[0].io.receiverBufferLength 10
config *.udp_tcp3.app[0].io.nackCountdown 0.25ms
config *.udp_tcp3.app[0].source.packetLength 20B
config *.udp_tcp3.ipv4.ip.limitedBroadcast true
config *.udp_tcp3.app[0].sink.flowName "\"default2\""
config *.switch.eth[*].bitrate 100Mbps

vector 0 TargetNetwork.udp_tcp2.eth[0].macLayer.queue 615.udp_tcp2.eth[0].macLayer.queue ETV
vector 1 TargetNetwork.udp_tcp3.eth[0].macLayer.queue 615.udp_tcp3.eth[0].macLayer.queue ETV
vector 2 TargetNetwork.switch.eth[0].macLayer.queue 615.switch.eth[0].macLayer.queue ETV
vector 3 TargetNetwork.switch.eth[2].macLayer.queue 615.switch.eth[2].macLayer.queue ETV
vector 4 TargetNetwork.switch.eth[1].macLayer.queue 615.switch.eth[1].macLayer.queue ETV
vector 5 TargetNetwork.udp_tcp.eth[0].macLayer.queue 615.udp_tcp.eth[0].macLayer.queue ETV
vector 6 TargetNetwork.udp_tcp2.app[0].io default.DdsReceiveQueue ETV
vector 7 TargetNetwork.udp_tcp3.app[0].io default2.DdsReceiveQueue ETV
vector 8 TargetNetwork.udp_tcp2.app[0].sink default ETV
vector 9 TargetNetwork.udp_tcp2.app[0].sink default_loss ETV
vector 10 TargetNetwork.udp_tcp3.app[0].sink default2 ETV
vector 11 TargetNetwork.udp_tcp3.app[0].sink default2_loss ETV
0	25	0	0.01
0	29	0	0
0	106	0.001616389009	0.01
0	107	0.001616389009	0
1	27	0	0.01
1	31	0	0
1	138	0.001629669009	0.01
1	139	0.001629669009	0
2	40	0.00000592	0.01
2	42	0.00000592	0.02
2	45	0.00000592	0.01
2	71	0.0000128	0
2	120	0.001622309009	0.01
2	121	0.001622309009	0
2	145	0.001635589009	0.01
2	146	0.001635589009	0
3	41	0.00000592	0.01
3	44	0.00000592	0
3	113	0.001617349009	0.01
3	114	0.001617349009	0
3	186	0.005375277117	0.01
3	187	0.005375277117	0
3	228	0.012005101677	0.01
3	229	0.012005101677	0
3	269	0.015349524078	0.01
3	270	0.015349524078	0
3	310	0.02054603225	0.01
3	311	0.02054603225	0
3	351	0.022635257267	0.01
3	352	0.022635257267	0
3	392	0.025646825784	0.01
3	393	0.025646825784	0
3	433	0.026930244129	0.01
3	434	0.026930244129	0
3	474	0.029963316077	0.01
3	475	0.029963316077	0
3	515	0.031707958467	0.01
3	516	0.031707958467	0
3	556	0.033183613051	0.01
3	557	0.033183613051	0
3	597	0.033596019615	0.01
3	598	0.033596019615	0
3	638	0.035276689026	0.01
3	639	0.035276689026	0
3	679	0.035600962005	0.01
3	680	0.035600962005	0
3	720	0.041356792048	0.01
3	721	0.041356792048	0
3	761	0.043255781215	0.01
3	762	0.043255781215	0
3	800	0.043380011796	0.01
3	801	0.043380011796	0
3	841	0.043754863928	0.01
3	842	0.043754863928	0
3	882	0.044512787857	0.01
3	883	0.044512787857	0
3	921	0.04459115417	0.01
3	922	0.04459115417	0
3	960	0.044806424386	0.01
3	961	0.044806424386	0
3	1001	0.055526625086	0.01
3	1002	0.055526625086	0
3	1042	0.056782508248	0.01
3	1043	0.056782508248	0
3	1083	0.057607510708	0.01
3	1084	0.057607510708	0
3	1124	0.057904935247	0.01
3	1125	0.057904935247	0
3	1165	0.060077474009	0.01
3	1166	0.060077474009	0
3	1206	0.063717111848	0.01
3	1207	0.063717111848	0
3	1247	0.06792775445	0.01
3	1248	0.06792775445	0
3	1288	0.069784711444	0.01
3	1289	0.069784711444	0
3	1329	0.070950468222	0.01
3	1330	0.070950468222	0
3	1370	0.071652820401	0.01
3	1371	0.071652820401	0
3	1411	0.075901294795	0.01
3	1412	0.075901294795	0
3	1452	0.078259673849	0.01
3	1453	0.078259673849	0
3	1493	0.079682169723	0.01
3	1494	0.079682169723	0
3	1543	0.081397961005	0.01
3	1544	0.081397961005	0
3	1573	0.081424521005	0.01
3	1574	0.081424521005	0
3	1614	0.083500323814	0.01
3	1615	0.083500323814	0
3	1655	0.084514724061	0.01
3	1656	0.084514724061	0
3	1696	0.088046206206	0.01
3	1697	0.088046206206	0
3	1737	0.08973237227	0.01
3	1738	0.08973237227	0
3	1778	0.096282658625	0.01
3	1779	0.096282658625	0
3	1819	0.097291346238	0.01
3	1820	0.097291346238	0
3	1860	0.097796186224	0.01
3	1861	0.097796186224	0
3	1901	0.098988945013	0.01
3	1902	0.098988945013	0
3	1942	0.09969498528	0.01
3	1943	0.09969498528	0
3	1983	0.101945549314	0.01
3	1984	0.101945549314	0
3	2024	0.106215210214	0.01
3	2025	0.106215210214	0
3	2065	0.108370879982	0.01
3	2066	0.108370879982	0
3	2106	0.110436474003	0.01
3	2107	0.110436474003	0
3	2147	0.11172468342	0.01
3	2148	0.11172468342	0
3	2188	0.113883323817	0.01
3	2189	0.113883323817	0
3	2229	0.11664928223	0.01
3	2230	0.11664928223	0
3	2270	0.117357730494	0.01
3	2271	0.117357730494	0
3	2311	0.118962834466	0.01
3	2312	0.118962834466	0
3	2352	0.121074533683	0.01
3	2353	0.121074533683	0
3	2393	0.121379120934	0.01
3	2394	0.121379120934	0
3	2434	0.125828950248	0.01
3	2435	0.125828950248	0
3	2475	0.127017097245	0.01
3	2476	0.127017097245	0
3	2516	0.129522312295	0.01
3	2517	0.129522312295	0
3	2557	0.134222666875	0.01
3	2558	0.134222666875	0
3	2598	0.136134599723	0.01
3	2599	0.136134599723	0
3	2639	0.140138572714	0.01
3	2640	0.140138572714	0
3	2680	0.141184312774	0.01
3	2681	0.141184312774	0
3	2721	0.142118857907	0.01
3	2722	0.142118857907	0
3	2762	0.146144403379	0.01
3	2763	0.146144403379	0
3	2803	0.146669061997	0.01
3	2804	0.146669061997	0
3	2844	0.149287658725	0.01
3	2845	0.149287658725	0
3	2885	0.150632579759	0.01
3	2886	0.150632579759	0
3	2924	0.1506699707	0.01
3	2925	0.1506699707	0
3	2965	0.154822032821	0.01
3	2966	0.154822032821	0
3	3006	0.157259626428	0.01
3	3007	0.157259626428	0
3	3047	0.158646025967	0.01
3	3048	0.158646025967	0
3	3088	0.159189362108	0.01
3	3089	0.159189362108	0
3	3129	0.161462555099	0.01
3	3130	0.161462555099	0
3	3170	0.164082125842	0.01
3	3171	0.164082125842	0
3	3211	0.164559631588	0.01
3	3212	0.164559631588	0
3	3252	0.170337782772	0.01
3	3253	0.170337782772	0
3	3293	0.177366740133	0.01
3	3294	0.177366740133	0
3	3332	0.177486302059	0.01
3	3333	0.177486302059	0
3	3373	0.181743642248	0.01
3	3374	0.181743642248	0
3	3414	0.182139577719	0.01
3	3415	0.182139577719	0
3	3455	0.184863441168	0.01
3	3456	0.184863441168	0
3	3496	0.18640168077	0.01
3	3497	0.18640168077	0
3	3537	0.187669540809	0.01
3	3538	0.187669540809	0
3	3578	0.188280750613	0.01
3	3579	0.188280750613	0
3	3619	0.192547877188	0.01
3	3620	0.192547877188	0
3	3669	0.194322881045	0.01
3	3670	0.194322881045	0
3	3699	0.194349441045	0.01
3	3700	0.194349441045	0
3	3740	0.195070518337	0.01
3	3741	0.195070518337	0
3	3781	0.196288607562	0.01
3	3782	0.196288607562	0
3	3822	0.202177568117	0.01
3	3823	0.202177568117	0
3	3863	0.20293042682	0.01
3	3864	0.20293042682	0
3	3902	0.20298242231	0.01
3	3903	0.20298242231	0
3	3943	0.205604367046	0.01
3	3944	0.205604367046	0
3	3984	0.206254799082	0.01
3	3985	0.206254799082	0
3	4025	0.20900415899	0.01
3	4026	0.20900415899	0
3	4066	0.20928744306	0.01
3	4067	0.20928744306	0
3	4107	0.210531516898	0.01
3	4108	0.210531516898	0
3	4148	0.210844468439	0.01
3	4149	0.210844468439	0
3	4189	0.213405317147	0.01
3	4190	0.213405317147	0
3	4230	0.216167243338	0.01
3	4231	0.216167243338	0
3	4271	0.21893387627	0.01
3	4272	0.21893387627	0
3	4312	0.225470869072	0.01
3	4313	0.225470869072	0
3	4353	0.22773270603	0.01
3	4354	0.22773270603	0
3	4394	0.233037823061	0.01
3	4395	0.233037823061	0
3	4435	0.241349765252	0.01
3	4436	0.241349765252	0
3	4474	0.241481949273	0.01
3	4475	0.241481949273	0
3	4515	0.244579972631	0.01
3	4516	0.244579972631	0
3	4556	0.251097814585	0.01
3	4557	0.251097814585	0
3	4597	0.252453418589	0.01
3	4598	0.252453418589	0
3	4638	0.254444345876	0.01
3	4639	0.254444345876	0
3	4679	0.258167209162	0.01
3	4680	0.258167209162	0
3	4718	0.258193859652	0.01
3	4719	0.258193859652	0
3	4759	0.261225997512	0.01
3	4760	0.261225997512	0
3	4800	0.262601884469	0.01
3	4801	0.262601884469	0
3	4841	0.263658818926	0.01
3	4842	0.263658818926	0
3	4882	0.264079885502	0.01
3	4883	0.264079885502	0
3	4923	0.271975152037	0.01
3	4924	0.271975152037	0
3	4964	0.279193034047	0.01
3	4965	0.279193034047	0
3	5005	0.280252957206	0.01
3	5006	0.280252957206	0
3	5044	0.28042211619	0.01
3	5045	0.28042211619	0
3	5085	0.285635259795	0.01
3	5086	0.285635259795	0
3	5126	0.288221555513	0.01
3	5127	0.288221555513	0
3	5167	0.288948039951	0.01
3	5168	0.288948039951	0
3	5206	0.289135789046	0.01
3	5207	0.289135789046	0
3	5247	0.290267578129	0.01
3	5248	0.290267578129	0
3	5288	0.29420769326	0.01
3	5289	0.29420769326	0
3	5329	0.294799497006	0.01
3	5330	0.294799497006	0
3	5370	0.295517419643	0.01
3	5371	0.295517419643	0
3	5411	0.297004586027	0.01
3	5412	0.297004586027	0
3	5452	0.297671392704	0.01
3	5453	0.297671392704	0
3	5493	0.299095408835	0.01
3	5494	0.299095408835	0
3	5534	0.301483435576	0.01
3	5535	0.301483435576	0
3	5575	0.303770816817	0.01
3	5576	0.303770816817	0
3	5616	0.305542338109	0.01
3	5617	0.305542338109	0
3	5657	0.305828844152	0.01
3	5658	0.305828844152	0
3	5696	0.305920120251	0.01
3	5697	0.305920120251	0
3	5737	0.307187984504	0.01
3	5738	0.307187984504	0
3	5778	0.308911319488	0.01
3	5779	0.308911319488	0
3	5819	0.31020113647	0.01
3	5820	0.31020113647	0
3	5860	0.311627905036	0.01
3	5861	0.311627905036	0
3	5901	0.313724483246	0.01
3	5902	0.313724483246	0
3	5942	0.314721867912	0.01
3	5943	0.314721867912	0
3	5983	0.314999041555	0.01
3	5984	0.314999041555	0
3	6024	0.316220007245	0.01
3	6025	0.316220007245	0
3	6065	0.319442671243	0.01
3	6066	0.319442671243	0
3	6106	0.324130410525	0.01
3	6107	0.324130410525	0
3	6147	0.325866350489	0.01
3	6148	0.325866350489	0
3	6197	0.327887888815	0.01
3	6198	0.327887888815	0
3	6227	0.327914448815	0.01
3	6228	0.327914448815	0
3	6268	0.328437703891	0.01
3	6269	0.328437703891	0
3	6309	0.330069741019	0.01
3	6310	0.330069741019	0
3	6350	0.331784611224	0.01
3	6351	0.331784611224	0
3	6391	0.341551609205	0.01
3	6392	0.341551609205	0
3	6432	0.343534168217	0.01
3	6433	0.343534168217	0
3	6473	0.349055377128	0.01
3	6474	0.349055377128	0
3	6514	0.352836835437	0.01
3	6515	0.352836835437	0
3	6554	0.353091982585	0.01
3	6555	0.353091982585	0
3	6594	0.353124909153	0.01
3	6595	0.353124909153	0
3	6635	0.354661834308	0.01
3	6636	0.354661834308	0
3	6676	0.360473673515	0.01
3	6677	0.360473673515	0
3	6715	0.360588859349	0.01
3	6716	0.360588859349	0
3	6756	0.362495104426	0.01
3	6757	0.362495104426	0
3	6797	0.363934394221	0.01
3	6798	0.363934394221	0
3	6838	0.364514941051	0.01
3	6839	0.364514941051	0
3	6879	0.367463785501	0.01
3	6880	0.367463785501	0
3	6918	0.367709215516	0.01
3	6919	0.367709215516	0
3	6959	0.368647058171	0.01
3	6960	0.368647058171	0
3	7000	0.369002811687	0.01
3	7001	0.369002811687	0
3	7041	0.371046248382	0.01
3	7042	0.371046248382	0
3	7082	0.374104126123	0.01
3	7083	0.374104126123	0
3	7123	0.376405451309	0.01
3	7124	0.376405451309	0
3	7164	0.378597836431	0.01
3	7165	0.378597836431	0
3	7205	0.379974864207	0.01
3	7206	0.379974864207	0
3	7246	0.382427128631	0.01
3	7247	0.382427128631	0
3	7287	0.389368418792	0.01
3	7288	0.389368418792	0
3	7326	0.389462617334	0.01
3	7327	0.389462617334	0
3	7367	0.3950009063	0.01
3	7368	0.3950009063	0
3	7408	0.401946617712	0.01
3	7409	0.401946617712	0
3	7448	0.402204694718	0.01
3	7449	0.402204694718	0
3	7488	0.4024285838	0.01
3	7489	0.4024285838	0
3	7529	0.403315252592	0.01
3	7530	0.403315252592	0
3	7570	0.405939178754	0.01
3	7571	0.405939178754	0
3	7611	0.406224184645	0.01
3	7612	0.406224184645	0
3	7652	0.408987102805	0.01
3	7653	0.408987102805	0
3	7693	0.410389193824	0.01
3	7694	0.410389193824	0
3	7734	0.41404424636	0.01
3	7735	0.41404424636	0
3	7775	0.415665232654	0.01
3	7776	0.415665232654	0
3	7816	0.41970440166	0.01
3	7817	0.41970440166	0
3	7855	0.419754257851	0.01
3	7856	0.419754257851	0
3	7896	0.430124516697	0.01
3	7897	0.430124516697	0
3	7937	0.43201672018	0.01
3	7938	0.43201672018	0
3	7978	0.433097525575	0.01
3	7979	0.433097525575	0
3	8017	0.433308317835	0.01
3	8018	0.433308317835	0
3	8058	0.44017956462	0.01
3	8059	0.44017956462	0
3	8099	0.440501024701	0.01
3	8100	0.440501024701	0
3	8140	0.44154524731	0.01
3	8141	0.44154524731	0
3	8181	0.442182929407	0.01
3	8182	0.442182929407	0
3	8222	0.442754067248	0.01
3	8223	0.442754067248	0
3	8263	0.443404900682	0.01
3	8264	0.443404900682	0
3	8304	0.44618225523	0.01
3	8305	0.44618225523	0
3	8345	0.453012105035	0.01
3	8346	0.453012105035	0
3	8386	0.453597206237	0.01
3	8387	0.453597206237	0
3	8427	0.455033937907	0.01
3	8428	0.455033937907	0
3	8468	0.457316024576	0.01
3	8469	0.457316024576	0
3	8509	0.461783304278	0.01
3	8510	0.461783304278	0
3	8550	0.464038825145	0.01
3	8551	0.464038825145	0
3	8591	0.46435979336	0.01
3	8592	0.46435979336	0
3	8632	0.466837866375	0.01
3	8633	0.466837866375	0
3	8671	0.46688753279	0.01
3	8672	0.46688753279	0
3	8710	0.467075043565	0.01
3	8711	0.467075043565	0
3	8751	0.468183580512	0.01
3	8752	0.468183580512	0
3	8792	0.468838001275	0.01
3	8793	0.468838001275	0
3	8831	0.469047425822	0.01
3	8832	0.469047425822	0
3	8872	0.471276647828	0.01
3	8873	0.471276647828	0
3	8913	0.471791817561	0.01
3	8914	0.471791817561	0
3	8954	0.473568874986	0.01
3	8955	0.473568874986	0
3	8995	0.475769812047	0.01
3	8996	0.475769812047	0
3	9036	0.477195725005	0.01
3	9037	0.477195725005	0
3	9077	0.482235502393	0.01
3	9078	0.482235502393	0
3	9118	0.483703242327	0.01
3	9119	0.483703242327	0
3	9159	0.484939347081	0.01
3	9160	0.484939347081	0
3	9200	0.486891931127	0.01
3	9201	0.486891931127	0
3	9241	0.487687827916	0.01
3	9242	0.487687827916	0
3	9282	0.491795932884	0.01
3	9283	0.491795932884	0
3	9323	0.493358270464	0.01
3	9324	0.493358270464	0
3	9364	0.496900977103	0.01
3	9365	0.496900977103	0
3	9403	0.497147796046	0.01
3	9404	0.497147796046	0
3	9444	0.498133553583	0.01
3	9445	0.498133553583	0
3	9485	0.502870025689	0.01
3	9486	0.502870025689	0
3	9526	0.50405263126	0.01
3	9527	0.50405263126	0
3	9567	0.504367975366	0.01
3	9568	0.504367975366	0
3	9606	0.504527115676	0.01
3	9607	0.504527115676	0
3	9647	0.508742676393	0.01
3	9648	0.508742676393	0
3	9686	0.508868723282	0.01
3	9687	0.508868723282	0
3	9727	0.510009735258	0.01
3	9728	0.510009735258	0
3	9777	0.511515274562	0.01
3	9778	0.511515274562	0
3	9807	0.511541834562	0.01
3	9808	0.511541834562	0
3	9848	0.513340624686	0.01
3	9849	0.513340624686	0
3	9889	0.515521115859	0.01
3	9890	0.515521115859	0
3	9928	0.51565170305	0.01
3	9929	0.51565170305	0
3	9969	0.51668410996	0.01
3	9970	0.51668410996	0
3	10010	0.518129314435	0.01
3	10011	0.518129314435	0
3	10051	0.519922686108	0.01
3	10052	0.519922686108	0
3	10092	0.520209132651	0.01
3	10093	0.520209132651	0
3	10133	0.522322014639	0.01
3	10134	0.522322014639	0
3	10174	0.523334542573	0.01
3	10175	0.523334542573	0
3	10215	0.524523474606	0.01
3	10216	0.524523474606	0
3	10256	0.527877344072	0.01
3	10257	0.527877344072	0
3	10297	0.534167339177	0.01
3	10298	0.534167339177	0
3	10338	0.534984774485	0.01
3	10339	0.534984774485	0
3	10377	0.535028629246	0.01
3	10378	0.535028629246	0
3	10418	0.536504902731	0.01
3	10419	0.536504902731	0
3	10459	0.537640678117	0.01
3	10460	0.537640678117	0
3	10500	0.539422385721	0.01
3	10501	0.539422385721	0
3	10539	0.539530259634	0.01
3	10540	0.539530259634	0
3	10580	0.540551249959	0.01
3	10581	0.540551249959	0
3	10621	0.543447542207	0.01
3	10622	0.543447542207	0
3	10662	0.547409452799	0.01
3	10663	0.547409452799	0
3	10703	0.549340324398	0.01
3	10704	0.549340324398	0
3	10744	0.549710636505	0.01
3	10745	0.549710636505	0
3	10785	0.550343110717	0.01
3	10786	0.550343110717	0
3	10826	0.551564619067	0.01
3	10827	0.551564619067	0
3	10865	0.551775247905	0.01
3	10866	0.551775247905	0
3	10906	0.552408102687	0.01
3	10907	0.552408102687	0
3	10945	0.552529451287	0.01
3	10946	0.552529451287	0
3	10986	0.555031348608	0.01
3	10987	0.555031348608	0
3	11025	0.555075785912	0.01
3	11026	0.555075785912	0
3	11064	0.555221018028	0.01
3	11065	0.555221018028	0
3	11105	0.557449247501	0.01
3	11106	0.557449247501	0
3	11144	0.55768338758	0.01
3	11145	0.55768338758	0
3	11185	0.558343600968	0.01
3	11186	0.558343600968	0
3	11226	0.561016737803	0.01
3	11227	0.561016737803	0
3	11265	0.561194909718	0.01
3	11266	0.561194909718	0
3	11306	0.567590227233	0.01
3	11307	0.567590227233	0
3	11347	0.572028818277	0.01
3	11348	0.572028818277	0
3	11388	0.573064665167	0.01
3	11389	0.573064665167	0
3	11429	0.582739840065	0.01
3	11430	0.582739840065	0
3	11470	0.584200084106	0.01
3	11471	0.584200084106	0
3	11511	0.586207132882	0.01
3	11512	0.586207132882	0
3	11550	0.586385475047	0.01
3	11551	0.586385475047	0
3	11589	0.586435997291	0.01
3	11590	0.586435997291	0
3	11628	0.586571709047	0.01
3	11629	0.586571709047	0
3	11667	0.586685076809	0.01
3	11668	0.586685076809	0
3	11708	0.587904195171	0.01
3	11709	0.587904195171	0
3	11749	0.590400231634	0.01
3	11750	0.590400231634	0
3	11790	0.591260076039	0.01
3	11791	0.591260076039	0
3	11831	0.592243166757	0.01
3	11832	0.592243166757	0
3	11872	0.596763967652	0.01
3	11873	0.596763967652	0
3	11913	0.598966759809	0.01
3	11914	0.598966759809	0
3	11954	0.60181502184	0.01
3	11955	0.60181502184	0
3	11995	0.603871432477	0.01
3	11996	0.603871432477	0
3	12036	0.604476088753	0.01
3	12037	0.604476088753	0
3	12077	0.605919406248	0.01
3	12078	0.605919406248	0
3	12116	0.606169127964	0.01
3	12117	0.606169127964	0
3	12157	0.607930164841	0.01
3	12158	0.607930164841	0
3	12198	0.608323606218	0.01
3	12199	0.608323606218	0
3	12239	0.61064263815	0.01
3	12240	0.61064263815	0
3	12280	0.617428499579	0.01
3	12281	0.617428499579	0
3	12321	0.621048721602	0.01
3	12322	0.621048721602	0
3	12362	0.622519835112	0.01
3	12363	0.622519835112	0
3	12401	0.62258674463	0.01
3	12402	0.62258674463	0
3	12442	0.623155944998	0.01
3	12443	0.623155944998	0
3	12483	0.625219786404	0.01
3	12484	0.625219786404	0
3	12524	0.626039040724	0.01
3	12525	0.626039040724	0
3	12565	0.630646254477	0.01
3	12566	0.630646254477	0
3	12606	0.637417736283	0.01
3	12607	0.637417736283	0
3	12647	0.637943247103	0.01
3	12648	0.637943247103	0
3	12688	0.638306405538	0.01
3	12689	0.638306405538	0
3	12729	0.639625411138	0.01
3	12730	0.639625411138	0
3	12770	0.642637113424	0.01
3	12771	0.642637113424	0
3	12811	0.650014057375	0.01
3	12812	0.650014057375	0
3	12852	0.653421920584	0.01
3	12853	0.653421920584	0
3	12893	0.656469261145	0.01
3	12894	0.656469261145	0
3	12934	0.657574859812	0.01
3	12935	0.657574859812	0
3	12975	0.658706105654	0.01
3	12976	0.658706105654	0
3	13024	0.658956156752	0.01
3	13025	0.658956156752	0
3	13055	0.658982716752	0.01
3	13056	0.658982716752	0
3	13105	0.664323508248	0.01
3	13106	0.664323508248	0
3	13135	0.664350068248	0.01
3	13136	0.664350068248	0
3	13176	0.666701311734	0.01
3	13177	0.666701311734	0
3	13217	0.668242386376	0.01
3	13218	0.668242386376	0
3	13258	0.672799005862	0.01
3	13259	0.672799005862	0
3	13299	0.675005656467	0.01
3	13300	0.675005656467	0
3	13340	0.679154961232	0.01
3	13341	0.679154961232	0
3	13381	0.679932228364	0.01
3	13382	0.679932228364	0
3	13411	0.682667039802	0.01
3	13412	0.682667039802	0
3	13451	0.682979625087	0.01
3	13452	0.682979625087	0
3	13490	0.683112835361	0.01
3	13491	0.683112835361	0
3	13531	0.688500950731	0.01
3	13532	0.688500950731	0
3	13572	0.691007106919	0.01
3	13573	0.691007106919	0
3	13613	0.692868454032	0.01
3	13614	0.692868454032	0
3	13654	0.696723063027	0.01
3	13655	0.696723063027	0
3	13695	0.698028550268	0.01
3	13696	0.698028550268	0
3	13736	0.699484596034	0.01
3	13737	0.699484596034	0
3	13777	0.700567541021	0.01
3	13778	0.700567541021	0
3	13818	0.702776434631	0.01
3	13819	0.702776434631	0
3	13859	0.707055389677	0.01
3	13860	0.707055389677	0
3	13900	0.708151127065	0.01
3	13901	0.708151127065	0
3	13941	0.712548657644	0.01
3	13942	0.712548657644	0
3	13982	0.712889412361	0.01
3	13983	0.712889412361	0
3	14023	0.715368306679	0.01
3	14024	0.715368306679	0
3	14064	0.716795528986	0.01
3	14065	0.716795528986	0
3	14105	0.722328489322	0.01
3	14106	0.722328489322	0
3	14146	0.724695168369	0.01
3	14147	0.724695168369	0
3	14187	0.731299536274	0.01
3	14188	0.731299536274	0
3	14228	0.731748350681	0.01
3	14229	0.731748350681	0
3	14269	0.736332849933	0.01
3	14270	0.736332849933	0
3	14310	0.738103283622	0.01
3	14311	0.738103283622	0
3	14351	0.73928763323	0.01
3	14352	0.73928763323	0
3	14392	0.739996030458	0.01
3	14393	0.739996030458	0
3	14433	0.742596608742	0.01
3	14434	0.742596608742	0
3	14474	0.743539800183	0.01
3	14475	0.743539800183	0
3	14515	0.744384607082	0.01
3	14516	0.744384607082	0
3	14556	0.748601942046	0.01
3	14557	0.748601942046	0
3	14597	0.749766304152	0.01
3	14598	0.749766304152	0
3	14638	0.751140295424	0.01
3	14639	0.751140295424	0
3	14679	0.752519321268	0.01
3	14680	0.752519321268	0
3	14720	0.755400104478	0.01
3	14721	0.755400104478	0
3	14761	0.758730413933	0.01
3	14762	0.758730413933	0
3	14802	0.759345148479	0.01
3	14803	0.759345148479	0
3	14843	0.76436059315	0.01
3	14844	0.76436059315	0
3	14884	0.766513910448	0.01
3	14885	0.766513910448	0
3	14925	0.77111641718	0.01
3	14926	0.77111641718	0
3	14964	0.771299294476	0.01
3	14965	0.771299294476	0
3	15005	0.772971049611	0.01
3	15006	0.772971049611	0
3	15046	0.781945646433	0.01
3	15047	0.781945646433	0
3	15087	0.784087556526	0.01
3	15088	0.784087556526	0
3	15126	0.784192608707	0.01
3	15127	0.784192608707	0
3	15167	0.787699936742	0.01
3	15168	0.787699936742	0
3	15208	0.794347060995	0.01
3	15209	0.794347060995	0
3	15249	0.799016237439	0.01
3	15250	0.799016237439	0
3	15290	0.801616329457	0.01
3	15291	0.801616329457	0
3	15331	0.805046175665	0.01
3	15332	0.805046175665	0
3	15372	0.814970241155	0.01
3	15373	0.814970241155	0
3	15413	0.815272780045	0.01
3	15414	0.815272780045	0
3	15454	0.815828606139	0.01
3	15455	0.815828606139	0
3	15495	0.816573169705	0.01
3	15496	0.816573169705	0
3	15536	0.81756810966	0.01
3	15537	0.81756810966	0
3	15577	0.818059048624	0.01
3	15578	0.818059048624	0
3	15618	0.822502543029	0.01
3	15619	0.822502543029	0
3	15659	0.82335032771	0.01
3	15660	0.82335032771	0
3	15700	0.826154281604	0.01
3	15701	0.826154281604	0
3	15741	0.826651470653	0.01
3	15742	0.826651470653	0
3	15782	0.828004410413	0.01
3	15783	0.828004410413	0
3	15823	0.828765469833	0.01
3	15824	0.828765469833	0
3	15862	0.828915672175	0.01
3	15863	0.828915672175	0
3	15903	0.83157031812	0.01
3	15904	0.83157031812	0
3	15944	0.832744728863	0.01
3	15945	0.832744728863	0
3	15985	0.833184176354	0.01
3	15986	0.833184176354	0
3	16026	0.836714499913	0.01
3	16027	0.836714499913	0
3	16067	0.841809402415	0.01
3	16068	0.841809402415	0
3	16108	0.844298926573	0.01
3	16109	0.844298926573	0
3	16149	0.845654897616	0.01
3	16150	0.845654897616	0
3	16199	0.846796143132	0.01
3	16200	0.846796143132	0
3	16229	0.846822703132	0.01
3	16230	0.846822703132	0
3	16270	0.847342241122	0.01
3	16271	0.847342241122	0
3	16309	0.847547805186	0.01
3	16310	0.847547805186	0
3	16350	0.84885453212	0.01
3	16351	0.84885453212	0
3	16391	0.850651828029	0.01
3	16392	0.850651828029	0
3	16432	0.85599447737	0.01
3	16433	0.85599447737	0
3	16473	0.860227045066	0.01
3	16474	0.860227045066	0
3	16514	0.860787468022	0.01
3	16515	0.860787468022	0
3	16555	0.862533546125	0.01
3	16556	0.862533546125	0
3	16596	0.865702917539	0.01
3	16597	0.865702917539	0
3	16637	0.866763666869	0.01
3	16638	0.866763666869	0
3	16678	0.869829679681	0.01
3	16679	0.869829679681	0
3	16719	0.870367620738	0.01
3	16720	0.870367620738	0
3	16760	0.870887384642	0.01
3	16761	0.870887384642	0
3	16801	0.874659682296	0.01
3	16802	0.874659682296	0
3	16842	0.87518861142	0.01
3	16843	0.87518861142	0
3	16883	0.876463874859	0.01
3	16884	0.876463874859	0
3	16924	0.878532217337	0.01
3	16925	0.878532217337	0
3	16965	0.879393761163	0.01
3	16966	0.879393761163	0
3	17006	0.880590195913	0.01
3	17007	0.880590195913	0
3	17047	0.880896072386	0.01
3	17048	0.880896072386	0
3	17088	0.881685471984	0.01
3	17089	0.881685471984	0
3	17129	0.882810116834	0.01
3	17130	0.882810116834	0
3	17170	0.883656777646	0.01
3	17171	0.883656777646	0
3	17211	0.884274269182	0.01
3	17212	0.884274269182	0
3	17252	0.885342315863	0.01
3	17253	0.885342315863	0
3	17293	0.885872260134	0.01
3	17294	0.885872260134	0
3	17333	0.886133986006	0.01
3	17334	0.886133986006	0
3	17375	0.88857519375	0.01
3	17376	0.88857519375	0
3	17416	0.890070031101	0.01
3	17417	0.890070031101	0
3	17455	0.890243961456	0.01
3	17456	0.890243961456	0
3	17505	0.892350632683	0.01
3	17506	0.892350632683	0
3	17535	0.892377192683	0.01
3	17536	0.892377192683	0
3	17576	0.898035163467	0.01
3	17577	0.898035163467	0
3	17615	0.898265769115	0.01
3	17616	0.898265769115	0
3	17656	0.899921172759	0.01
3	17657	0.899921172759	0
3	17697	0.900935898071	0.01
3	17698	0.900935898071	0
3	17738	0.901494330148	0.01
3	17739	0.901494330148	0
3	17779	0.90341720436	0.01
3	17780	0.90341720436	0
3	17820	0.908593471693	0.01
3	17821	0.908593471693	0
3	17861	0.909468079405	0.01
3	17862	0.909468079405	0
3	17900	0.909596166441	0.01
3	17901	0.909596166441	0
3	17941	0.912441954964	0.01
3	17942	0.912441954964	0
3	17982	0.918668760325	0.01
3	17983	0.918668760325	0
3	18023	0.919370571668	0.01
3	18024	0.919370571668	0
3	18064	0.919727769754	0.01
3	18065	0.919727769754	0
3	18105	0.922787144623	0.01
3	18106	0.922787144623	0
3	18146	0.924491167578	0.01
3	18147	0.924491167578	0
3	18187	0.924944457015	0.01
3	18188	0.924944457015	0
3	18228	0.925885585967	0.01
3	18229	0.925885585967	0
3	18269	0.926495377956	0.01
3	18270	0.926495377956	0
3	18310	0.927300671885	0.01
3	18311	0.927300671885	0
3	18351	0.928909192881	0.01
3	18352	0.928909192881	0
3	18392	0.92947200435	0.01
3	18393	0.92947200435	0
3	18433	0.941895233103	0.01
3	18434	0.941895233103	0
3	18483	0.942539573837	0.01
3	18484	0.942539573837	0
3	18513	0.942566133837	0.01
3	18514	0.942566133837	0
3	18554	0.942987274668	0.01
3	18555	0.942987274668	0
3	18595	0.943646671708	0.01
3	18596	0.943646671708	0
3	18636	0.944836484043	0.01
3	18637	0.944836484043	0
3	18675	0.945065433502	0.01
3	18676	0.945065433502	0
3	18716	0.946437967817	0.01
3	18717	0.946437967817	0
3	18757	0.947449729679	0.01
3	18758	0.947449729679	0
3	18798	0.947948007469	0.01
3	18799	0.947948007469	0
3	18837	0.947997775632	0.01
3	18838	0.947997775632	0
3	18878	0.950067554492	0.01
3	18879	0.950067554492	0
3	18919	0.956295162816	0.01
3	18920	0.956295162816	0
3	18960	0.960662334049	0.01
3	18961	0.960662334049	0
3	19001	0.963443198228	0.01
3	19002	0.963443198228	0
3	19042	0.965253818912	0.01
3	19043	0.965253818912	0
3	19081	0.965290343111	0.01
3	19082	0.965290343111	0
3	19122	0.968985756352	0.01
3	19123	0.968985756352	0
3	19163	0.969696689552	0.01
3	19164	0.969696689552	0
3	19204	0.971615819509	0.01
3	19205	0.971615819509	0
3	19245	0.974006045499	0.01
3	19246	0.974006045499	0
3	19286	0.975814757086	0.01
3	19287	0.975814757086	0
3	19327	0.978362588321	0.01
3	19328	0.978362588321	0
3	19368	0.983058585126	0.01
3	19369	0.983058585126	0
3	19409	0.983974657215	0.01
3	19410	0.983974657215	0
3	19450	0.987484174594	0.01
3	19451	0.987484174594	0
3	19487	0.990871452918	0.01
3	19488	0.990871452918	0
3	19527	0.994114026123	0.01
3	19528	0.994114026123	0
3	19568	0.995758036404	0.01
3	19569	0.995758036404	0
3	19609	0.99876259522	0.01
3	19610	0.99876259522	0
3	19650	0.99950046033	0.01
3	19651	0.99950046033	0
3	19691	1.001351372643	0.01
3	19692	1.001351372643	0
3	19732	1.002195443417	0.01
3	19733	1.002195443417	0
3	19773	1.005166868952	0.01
3	19774	1.005166868952	0
3	19821	1.005250972359	0.01
3	19822	1.005250972359	0
3	19851	1.005277532359	0.01
3	19852	1.005277532359	0
3	19892	1.008328055641	0.01
3	19893	1.008328055641	0
3	19962	1.021044780024	0.01
3	19963	1.021044780024	0
3	20003	1.030875519016	0.01
3	20004	1.030875519016	0
3	20044	1.039323493253	0.01
3	20045	1.039323493253	0
3	20085	1.042156229907	0.01
3	20086	1.042156229907	0
3	20124	1.042232743717	0.01
3	20125	1.042232743717	0
3	20163	1.042480604384	0.01
3	20164	1.042480604384	0
3	20204	1.044439584546	0.01
3	20205	1.044439584546	0
3	20245	1.045466871018	0.01
3	20246	1.045466871018	0
3	20286	1.047464686558	0.01
3	20287	1.047464686558	0
3	20327	1.054174935484	0.01
3	20328	1.054174935484	0
3	20368	1.054999434232	0.01
3	20369	1.054999434232	0
3	20409	1.056434644812	0.01
3	20410	1.056434644812	0
3	20448	1.056553021208	0.01
3	20449	1.056553021208	0
3	20489	1.057560170707	0.01
3	20490	1.057560170707	0
3	20528	1.0576298628	0.01
3	20529	1.0576298628	0
3	20569	1.06067254953	0.01
3	20570	1.06067254953	0
3	20610	1.060986876375	0.01
3	20611	1.060986876375	0
3	20651	1.062218786499	0.01
3	20652	1.062218786499	0
3	20692	1.064368211278	0.01
3	20693	1.064368211278	0
3	20733	1.065257965875	0.01
3	20734	1.065257965875	0
3	20774	1.06992361851	0.01
3	20775	1.06992361851	0
3	20815	1.0728640849	0.01
3	20816	1.0728640849	0
3	20856	1.073255943588	0.01
3	20857	1.073255943588	0
3	20897	1.073971154805	0.01
3	20898	1.073971154805	0
3	20938	1.074488361344	0.01
3	20939	1.074488361344	0
3	20977	1.074531541505	0.01
3	20978	1.074531541505	0
3	21018	1.074800459221	0.01
3	21019	1.074800459221	0
3	21059	1.075603195147	0.01
3	21060	1.075603195147	0
3	21100	1.07687292792	0.01
3	21101	1.07687292792	0
3	21141	1.080603577429	0.01
3	21142	1.080603577429	0
3	21182	1.082976682312	0.01
3	21183	1.082976682312	0
3	21223	1.083307291404	0.01
3	21224	1.083307291404	0
3	21264	1.083857997459	0.01
3	21265	1.083857997459	0
3	21305	1.085001108166	0.01
3	21306	1.085001108166	0
3	21346	1.085556654154	0.01
3	21347	1.085556654154	0
3	21385	1.085762514783	0.01
3	21386	1.085762514783	0
3	21424	1.085849616066	0.01
3	21425	1.085849616066	0
3	21465	1.086858715922	0.01
3	21466	1.086858715922	0
3	21506	1.087357753297	0.01
3	21507	1.087357753297	0
3	21547	1.09415466203	0.01
3	21548	1.09415466203	0
3	21588	1.095674628022	0.01
3	21589	1.095674628022	0
3	21627	1.095703336098	0.01
3	21628	1.095703336098	0
3	21668	1.096163418481	0.01
3	21669	1.096163418481	0
3	21707	1.096298095821	0.01
3	21708	1.096298095821	0
3	21748	1.097081375023	0.01
3	21749	1.097081375023	0
3	21789	1.105166194563	0.01
3	21790	1.105166194563	0
3	21830	1.105666529822	0.01
3	21831	1.105666529822	0
3	21871	1.107166873997	0.01
3	21872	1.107166873997	0
3	21912	1.108567013288	0.01
3	21913	1.108567013288	0
3	21953	1.110996332836	0.01
3	21954	1.110996332836	0
3	22023	1.113389322656	0.01
3	22024	1.113389322656	0
3	22064	1.115708470565	0.01
3	22065	1.115708470565	0
3	22105	1.117610763592	0.01
3	22106	1.117610763592	0
3	22146	1.11933432177	0.01
3	22147	1.11933432177	0
3	22187	1.121918591326	0.01
3	22188	1.121918591326	0
3	22228	1.124252481226	0.01
3	22229	1.124252481226	0
3	22269	1.130929535923	0.01
3	22270	1.130929535923	0
3	22310	1.13249722358	0.01
3	22311	1.13249722358	0
3	22351	1.1354843312	0.01
3	22352	1.1354843312	0
3	22392	1.137641777291	0.01
3	22393	1.137641777291	0
3	22433	1.13886362037	0.01
3	22434	1.13886362037	0
3	22474	1.139182550155	0.01
3	22475	1.139182550155	0
3	22513	1.139210013345	0.01
3	22514	1.139210013345	0
3	22554	1.13985123866	0.01
3	22555	1.13985123866	0
3	22595	1.140975987494	0.01
3	22596	1.140975987494	0
3	22636	1.14237187801	0.01
3	22637	1.14237187801	0
3	22677	1.143932874789	0.01
3	22678	1.143932874789	0
3	22718	1.1446994376	0.01
3	22719	1.1446994376	0
3	22759	1.148034195683	0.01
3	22760	1.148034195683	0
3	22800	1.154781415295	0.01
3	22801	1.154781415295	0
3	22841	1.155530834156	0.01
3	22842	1.155530834156	0
3	22882	1.158427769114	0.01
3	22883	1.158427769114	0
3	22923	1.162213179732	0.01
3	22924	1.162213179732	0
3	22964	1.171498616035	0.01
3	22965	1.171498616035	0
3	23005	1.171810004226	0.01
3	23006	1.171810004226	0
3	23046	1.173350795715	0.01
3	23047	1.173350795715	0
3	23087	1.174073944614	0.01
3	23088	1.174073944614	0
3	23128	1.174675074638	0.01
3	23129	1.174675074638	0
3	23169	1.192336607248	0.01
3	23170	1.192336607248	0
3	23210	1.194649940731	0.01
3	23211	1.194649940731	0
3	23249	1.194741881569	0.01
3	23250	1.194741881569	0
3	23290	1.195451664083	0.01
3	23291	1.195451664083	0
3	23331	1.196488110979	0.01
3	23332	1.196488110979	0
3	23372	1.202260171165	0.01
3	23373	1.202260171165	0
3	23413	1.204234354529	0.01
3	23414	1.204234354529	0
3	23454	1.205594449092	0.01
3	23455	1.205594449092	0
3	23495	1.210378119346	0.01
3	23496	1.210378119346	0
3	23536	1.212799292541	0.01
3	23537	1.212799292541	0
3	23577	1.2157528875	0.01
3	23578	1.2157528875	0
3	23618	1.216423512786	0.01
3	23619	1.216423512786	0
3	23659	1.216925007525	0.01
3	23660	1.216925007525	0
3	23700	1.220070244834	0.01
3	23701	1.220070244834	0
3	23741	1.220828877568	0.01
3	23742	1.220828877568	0
3	23782	1.221462553168	0.01
3	23783	1.221462553168	0
3	23823	1.2274289711	0.01
3	23824	1.2274289711	0
3	23873	1.228157201071	0.01
3	23874	1.228157201071	0
3	23903	1.228183761071	0.01
3	23904	1.228183761071	0
3	23944	1.231287028371	0.01
3	23945	1.231287028371	0
3	23985	1.238327686003	0.01
3	23986	1.238327686003	0
3	24026	1.242030364834	0.01
3	24027	1.242030364834	0
3	24067	1.243787583174	0.01
3	24068	1.243787583174	0
3	24108	1.244563244985	0.01
3	24109	1.244563244985	0
3	24149	1.244894745857	0.01
3	24150	1.244894745857	0
3	24190	1.248444271532	0.01
3	24191	1.248444271532	0
3	24231	1.249665794882	0.01
3	24232	1.249665794882	0
3	24272	1.251866034669	0.01
3	24273	1.251866034669	0
3	24313	1.253184020055	0.01
3	24314	1.253184020055	0
3	24354	1.254057371404	0.01
3	24355	1.254057371404	0
3	24395	1.259264572585	0.01
3	24396	1.259264572585	0
3	24436	1.267446258229	0.01
3	24437	1.267446258229	0
3	24477	1.267714938344	0.01
3	24478	1.267714938344	0
3	24518	1.268231808904	0.01
3	24519	1.268231808904	0
3	24559	1.268645702771	0.01
3	24560	1.268645702771	0
3	24600	1.273953359392	0.01
3	24601	1.273953359392	0
3	24641	1.277133778442	0.01
3	24642	1.277133778442	0
3	24682	1.278910459218	0.01
3	24683	1.278910459218	0
3	24723	1.280698528715	0.01
3	24724	1.280698528715	0
3	24764	1.283654741696	0.01
3	24765	1.283654741696	0
3	24805	1.284838584403	0.01
3	24806	1.284838584403	0
3	24846	1.292590953775	0.01
3	24847	1.292590953775	0
3	24885	1.292782039137	0.01
3	24886	1.292782039137	0
3	24926	1.295726127695	0.01
3	24927	1.295726127695	0
3	24967	1.298688460865	0.01
3	24968	1.298688460865	0
3	25008	1.303820495349	0.01
3	25009	1.303820495349	0
3	25049	1.309164231807	0.01
3	25050	1.309164231807	0
3	25090	1.310514714237	0.01
3	25091	1.310514714237	0
3	25131	1.311478354327	0.01
3	25132	1.311478354327	0
3	25172	1.312223180276	0.01
3	25173	1.312223180276	0
3	25213	1.314288812209	0.01
3	25214	1.314288812209	0
3	25254	1.315600678586	0.01
3	25255	1.315600678586	0
3	25295	1.318552291738	0.01
3	25296	1.318552291738	0
3	25336	1.322331032331	0.01
3	25337	1.322331032331	0
3	25377	1.323168081955	0.01
3	25378	1.323168081955	0
3	25418	1.323440864653	0.01
3	25419	1.323440864653	0
3	25459	1.331134692109	0.01
3	25460	1.331134692109	0
3	25500	1.337611139585	0.01
3	25501	1.337611139585	0
3	25541	1.338983791961	0.01
3	25542	1.338983791961	0
3	25582	1.340566936376	0.01
3	25583	1.340566936376	0
3	25623	1.341305177072	0.01
3	25624	1.341305177072	0
3	25664	1.342447538843	0.01
3	25665	1.342447538843	0
3	25705	1.343359414669	0.01
3	25706	1.343359414669	0
3	25744	1.343399190884	0.01
3	25745	1.343399190884	0
3	25783	1.343479173691	0.01
3	25784	1.343479173691	0
3	25824	1.34641669185	0.01
3	25825	1.34641669185	0
3	25865	1.34740294839	0.01
3	25866	1.34740294839	0
3	25906	1.351984759834	0.01
3	25907	1.351984759834	0
3	25947	1.352531260515	0.01
3	25948	1.352531260515	0
3	25988	1.352813410919	0.01
3	25989	1.352813410919	0
3	26029	1.353122189001	0.01
3	26030	1.353122189001	0
3	26068	1.353330156125	0.01
3	26069	1.353330156125	0
3	26109	1.353935531298	0.01
3	26110	1.353935531298	0
3	26150	1.354252547008	0.01
3	26151	1.354252547008	0
3	26191	1.354649220532	0.01
3	26192	1.354649220532	0
3	26232	1.363994340816	0.01
3	26233	1.363994340816	0
3	26273	1.365783257096	0.01
3	26274	1.365783257096	0
3	26314	1.369295808827	0.01
3	26315	1.369295808827	0
3	26355	1.369613197431	0.01
3	26356	1.369613197431	0
3	26396	1.37139498839	0.01
3	26397	1.37139498839	0
3	26437	1.37451918804	0.01
3	26438	1.37451918804	0
3	26476	1.374757260395	0.01
3	26477	1.374757260395	0
3	26517	1.378512121877	0.01
3	26518	1.378512121877	0
3	26558	1.381146720083	0.01
3	26559	1.381146720083	0
3	26599	1.384763145902	0.01
3	26600	1.384763145902	0
3	26669	1.39333790892	0.01
3	26670	1.39333790892	0
3	26708	1.393427308925	0.01
3	26709	1.393427308925	0
3	26749	1.395461537005	0.01
3	26750	1.395461537005	0
3	26788	1.395637644089	0.01
3	26789	1.395637644089	0
3	26829	1.396710359217	0.01
3	26830	1.396710359217	0
3	26870	1.397949238053	0.01
3	26871	1.397949238053	0
3	26911	1.401157672811	0.01
3	26912	1.401157672811	0
3	26952	1.403446428925	0.01
3	26953	1.403446428925	0
3	26993	1.403778766904	0.01
3	26994	1.403778766904	0
3	27032	1.403822581208	0.01
3	27033	1.403822581208	0
3	27073	1.410245172568	0.01
3	27074	1.410245172568	0
3	27114	1.414042016588	0.01
3	27115	1.414042016588	0
3	27155	1.415260446838	0.01
3	27156	1.415260446838	0
3	27194	1.415460360307	0.01
3	27195	1.415460360307	0
3	27235	1.416483577876	0.01
3	27236	1.416483577876	0
3	27276	1.420416183223	0.01
3	27277	1.420416183223	0
3	27317	1.423364925393	0.01
3	27318	1.423364925393	0
3	27358	1.43211039878	0.01
3	27359	1.43211039878	0
3	27399	1.434016029689	0.01
3	27400	1.434016029689	0
3	27438	1.434117472735	0.01
3	27439	1.434117472735	0
3	27488	1.437643589313	0.01
3	27489	1.437643589313	0
3	27518	1.437670149313	0.01
3	27519	1.437670149313	0
3	27559	1.438535721872	0.01
3	27560	1.438535721872	0
3	27598	1.438615381967	0.01
3	27599	1.438615381967	0
3	27639	1.438926488571	0.01
3	27640	1.438926488571	0
3	27680	1.439847701035	0.01
3	27681	1.439847701035	0
3	27719	1.440079801927	0.01
3	27720	1.440079801927	0
3	27760	1.441445264021	0.01
3	27761	1.441445264021	0
3	27801	1.444383498982	0.01
3	27802	1.444383498982	0
3	27842	1.444958337742	0.01
3	27843	1.444958337742	0
3	27883	1.446033886459	0.01
3	27884	1.446033886459	0
3	27924	1.451603007175	0.01
3	27925	1.451603007175	0
3	27965	1.452476621881	0.01
3	27966	1.452476621881	0
3	28004	1.452725181156	0.01
3	28005	1.452725181156	0
3	28045	1.453314633509	0.01
3	28046	1.453314633509	0
3	28086	1.454206814061	0.01
3	28087	1.454206814061	0
3	28136	1.459441969302	0.01
3	28137	1.459441969302	0
3	28166	1.459468529302	0.01
3	28167	1.459468529302	0
3	28207	1.464664026035	0.01
3	28208	1.464664026035	0
3	28248	1.468443120633	0.01
3	28249	1.468443120633	0
3	28289	1.469219444844	0.01
3	28290	1.469219444844	0
3	28330	1.470331535541	0.01
3	28331	1.470331535541	0
3	28371	1.471692307587	0.01
3	28372	1.471692307587	0
3	28412	1.472024149977	0.01
3	28413	1.472024149977	0
3	28453	1.475622762325	0.01
3	28454	1.475622762325	0
3	28494	1.476251447493	0.01
3	28495	1.476251447493	0
3	28533	1.476478459196	0.01
3	28534	1.476478459196	0
3	28574	1.477625750051	0.01
3	28575	1.477625750051	0
3	28615	1.478595653809	0.01
3	28616	1.478595653809	0
3	28654	1.478625678069	0.01
3	28655	1.478625678069	0
3	28695	1.48293960616	0.01
3	28696	1.48293960616	0
3	28736	1.485331551923	0.01
3	28737	1.485331551923	0
3	28777	1.48969461643	0.01
3	28778	1.48969461643	0
3	28818	1.49020745112	0.01
3	28819	1.49020745112	0
3	28859	1.492619623463	0.01
3	28860	1.492619623463	0
3	28900	1.493212577998	0.01
3	28901	1.493212577998	0
3	28941	1.494717275056	0.01
3	28942	1.494717275056	0
3	28982	1.495373376467	0.01
3	28983	1.495373376467	0
3	29023	1.49650409022	0.01
3	29024	1.49650409022	0
3	29064	1.497471099422	0.01
3	29065	1.497471099422	0
3	29105	1.499041280074	0.01
3	29106	1.499041280074	0
4	43	0.00000592	0.01
4	46	0.00000592	0
4	95	0.001604069009	0.01
4	96	0.001604069009	0
4	170	0.005361997117	0.01
4	171	0.005361997117	0
4	213	0.011991821677	0.01
4	214	0.011991821677	0
4	254	0.015336244078	0.01
4	255	0.015336244078	0
4	295	0.02053275225	0.01
4	296	0.02053275225	0
4	336	0.022621977267	0.01
4	337	0.022621977267	0
4	377	0.025633545784	0.01
4	378	0.025633545784	0
4	418	0.026916964129	0.01
4	419	0.026916964129	0
4	459	0.029950036077	0.01
4	460	0.029950036077	0
4	500	0.031694678467	0.01
4	501	0.031694678467	0
4	541	0.033170333051	0.01
4	542	0.033170333051	0
4	582	0.033582739615	0.01
4	583	0.033582739615	0
4	623	0.035263409026	0.01
4	624	0.035263409026	0
4	664	0.035587682005	0.01
4	665	0.035587682005	0
4	705	0.041343512048	0.01
4	706	0.041343512048	0
4	746	0.043242501215	0.01
4	747	0.043242501215	0
4	785	0.043366731796	0.01
4	786	0.043366731796	0
4	826	0.043741583928	0.01
4	827	0.043741583928	0
4	867	0.044499507857	0.01
4	868	0.044499507857	0
4	906	0.04457787417	0.01
4	907	0.04457787417	0
4	945	0.044793144386	0.01
4	946	0.044793144386	0
4	986	0.055513345086	0.01
4	987	0.055513345086	0
4	1027	0.056769228248	0.01
4	1028	0.056769228248	0
4	1068	0.057594230708	0.01
4	1069	0.057594230708	0
4	1109	0.057891655247	0.01
4	1110	0.057891655247	0
4	1150	0.060064194009	0.01
4	1151	0.060064194009	0
4	1191	0.063703831848	0.01
4	1192	0.063703831848	0
4	1232	0.06791447445	0.01
4	1233	0.06791447445	0
4	1273	0.069771431444	0.01
4	1274	0.069771431444	0
4	1314	0.070937188222	0.01
4	1315	0.070937188222	0
4	1355	0.071639540401	0.01
4	1356	0.071639540401	0
4	1396	0.075888014795	0.01
4	1397	0.075888014795	0
4	1437	0.078246393849	0.01
4	1438	0.078246393849	0
4	1478	0.079668889723	0.01
4	1479	0.079668889723	0
4	1519	0.081384681005	0.01
4	1520	0.081384681005	0
4	1558	0.081411241005	0.01
4	1559	0.081411241005	0
4	1599	0.083487043814	0.01
4	1600	0.083487043814	0
4	1640	0.084501444061	0.01
4	1641	0.084501444061	0
4	1681	0.088032926206	0.01
4	1682	0.088032926206	0
4	1722	0.08971909227	0.01
4	1723	0.08971909227	0
4	1763	0.096269378625	0.01
4	1764	0.096269378625	0
4	1804	0.097278066238	0.01
4	1805	0.097278066238	0
4	1845	0.097782906224	0.01
4	1846	0.097782906224	0
4	1886	0.098975665013	0.01
4	1887	0.098975665013	0
4	1927	0.09968170528	0.01
4	1928	0.09968170528	0
4	1968	0.101932269314	0.01
4	1969	0.101932269314	0
4	2009	0.106201930214	0.01
4	2010	0.106201930214	0
4	2050	0.108357599982	0.01
4	2051	0.108357599982	0
4	2091	0.110423194003	0.01
4	2092	0.110423194003	0
4	2132	0.11171140342	0.01
4	2133	0.11171140342	0
4	2173	0.113870043817	0.01
4	2174	0.113870043817	0
4	2214	0.11663600223	0.01
4	2215	0.11663600223	0
4	2255	0.117344450494	0.01
4	2256	0.117344450494	0
4	2296	0.118949554466	0.01
4	2297	0.118949554466	0
4	2337	0.121061253683	0.01
4	2338	0.121061253683	0
4	2378	0.121365840934	0.01
4	2379	0.121365840934	0
4	2419	0.125815670248	0.01
4	2420	0.125815670248	0
4	2460	0.127003817245	0.01
4	2461	0.127003817245	0
4	2501	0.129509032295	0.01
4	2502	0.129509032295	0
4	2542	0.134209386875	0.01
4	2543	0.134209386875	0
4	2583	0.136121319723	0.01
4	2584	0.136121319723	0
4	2624	0.140125292714	0.01
4	2625	0.140125292714	0
4	2665	0.141171032774	0.01
4	2666	0.141171032774	0
4	2706	0.142105577907	0.01
4	2707	0.142105577907	0
4	2747	0.146131123379	0.01
4	2748	0.146131123379	0
4	2788	0.146655781997	0.01
4	2789	0.146655781997	0
4	2829	0.149274378725	0.01
4	2830	0.149274378725	0
4	2870	0.150619299759	0.01
4	2871	0.150619299759	0
4	2909	0.1506566907	0.01
4	2910	0.1506566907	0
4	2950	0.154808752821	0.01
4	2951	0.154808752821	0
4	2991	0.157246346428	0.01
4	2992	0.157246346428	0
4	3032	0.158632745967	0.01
4	3033	0.158632745967	0
4	3073	0.159176082108	0.01
4	3074	0.159176082108	0
4	3114	0.161449275099	0.01
4	3115	0.161449275099	0
4	3155	0.164068845842	0.01
4	3156	0.164068845842	0
4	3196	0.164546351588	0.01
4	3197	0.164546351588	0
4	3237	0.170324502772	0.01
4	3238	0.170324502772	0
4	3278	0.177353460133	0.01
4	3279	0.177353460133	0
4	3317	0.177473022059	0.01
4	3318	0.177473022059	0
4	3358	0.181730362248	0.01
4	3359	0.181730362248	0
4	3399	0.182126297719	0.01
4	3400	0.182126297719	0
4	3440	0.184850161168	0.01
4	3441	0.184850161168	0
4	3481	0.18638840077	0.01
4	3482	0.18638840077	0
4	3522	0.187656260809	0.01
4	3523	0.187656260809	0
4	3563	0.188267470613	0.01
4	3564	0.188267470613	0
4	3604	0.192534597188	0.01
4	3605	0.192534597188	0
4	3654	0.194309601045	0.01
4	3655	0.194309601045	0
4	3684	0.194336161045	0.01
4	3685	0.194336161045	0
4	3725	0.195057238337	0.01
4	3726	0.195057238337	0
4	3766	0.196275327562	0.01
4	3767	0.196275327562	0
4	3807	0.202164288117	0.01
4	3808	0.202164288117	0
4	3848	0.20291714682	0.01
4	3849	0.20291714682	0
4	3887	0.20296914231	0.01
4	3888	0.20296914231	0
4	3928	0.205591087046	0.01
4	3929	0.205591087046	0
4	3969	0.206241519082	0.01
4	3970	0.206241519082	0
4	4010	0.20899087899	0.01
4	4011	0.20899087899	0
4	4051	0.20927416306	0.01
4	4052	0.20927416306	0
4	4092	0.210518236898	0.01
4	4093	0.210518236898	0
4	4133	0.210831188439	0.01
4	4134	0.210831188439	0
4	4174	0.213392037147	0.01
4	4175	0.213392037147	0
4	4215	0.216153963338	0.01
4	4216	0.216153963338	0
4	4256	0.21892059627	0.01
4	4257	0.21892059627	0
4	4297	0.225457589072	0.01
4	4298	0.225457589072	0
4	4338	0.22771942603	0.01
4	4339	0.22771942603	0
4	4379	0.233024543061	0.01
4	4380	0.233024543061	0
4	4420	0.241336485252	0.01
4	4421	0.241336485252	0
4	4459	0.241468669273	0.01
4	4460	0.241468669273	0
4	4500	0.244566692631	0.01
4	4501	0.244566692631	0
4	4541	0.251084534585	0.01
4	4542	0.251084534585	0
4	4582	0.252440138589	0.01
4	4583	0.252440138589	0
4	4623	0.254431065876	0.01
4	4624	0.254431065876	0
4	4664	0.258153929162	0.01
4	4665	0.258153929162	0
4	4703	0.258180579652	0.01
4	4704	0.258180579652	0
4	4744	0.261212717512	0.01
4	4745	0.261212717512	0
4	4785	0.262588604469	0.01
4	4786	0.262588604469	0
4	4826	0.263645538926	0.01
4	4827	0.263645538926	0
4	4867	0.264066605502	0.01
4	4868	0.264066605502	0
4	4908	0.271961872037	0.01
4	4909	0.271961872037	0
4	4949	0.279179754047	0.01
4	4950	0.279179754047	0
4	4990	0.280239677206	0.01
4	4991	0.280239677206	0
4	5029	0.28040883619	0.01
4	5030	0.28040883619	0
4	5070	0.285621979795	0.01
4	5071	0.285621979795	0
4	5111	0.288208275513	0.01
4	5112	0.288208275513	0
4	5152	0.288934759951	0.01
4	5153	0.288934759951	0
4	5191	0.289122509046	0.01
4	5192	0.289122509046	0
4	5232	0.290254298129	0.01
4	5233	0.290254298129	0
4	5273	0.29419441326	0.01
4	5274	0.29419441326	0
4	5314	0.294786217006	0.01
4	5315	0.294786217006	0
4	5355	0.295504139643	0.01
4	5356	0.295504139643	0
4	5396	0.296991306027	0.01
4	5397	0.296991306027	0
4	5437	0.297658112704	0.01
4	5438	0.297658112704	0
4	5478	0.299082128835	0.01
4	5479	0.299082128835	0
4	5519	0.301470155576	0.01
4	5520	0.301470155576	0
4	5560	0.303757536817	0.01
4	5561	0.303757536817	0
4	5601	0.305529058109	0.01
4	5602	0.305529058109	0
4	5642	0.305815564152	0.01
4	5643	0.305815564152	0
4	5681	0.305906840251	0.01
4	5682	0.305906840251	0
4	5722	0.307174704504	0.01
4	5723	0.307174704504	0
4	5763	0.308898039488	0.01
4	5764	0.308898039488	0
4	5804	0.31018785647	0.01
4	5805	0.31018785647	0
4	5845	0.311614625036	0.01
4	5846	0.311614625036	0
4	5886	0.313711203246	0.01
4	5887	0.313711203246	0
4	5927	0.314708587912	0.01
4	5928	0.314708587912	0
4	5968	0.314985761555	0.01
4	5969	0.314985761555	0
4	6009	0.316206727245	0.01
4	6010	0.316206727245	0
4	6050	0.319429391243	0.01
4	6051	0.319429391243	0
4	6091	0.324117130525	0.01
4	6092	0.324117130525	0
4	6132	0.325853070489	0.01
4	6133	0.325853070489	0
4	6173	0.327874608815	0.01
4	6174	0.327874608815	0
4	6212	0.327901168815	0.01
4	6213	0.327901168815	0
4	6253	0.328424423891	0.01
4	6254	0.328424423891	0
4	6294	0.330056461019	0.01
4	6295	0.330056461019	0
4	6335	0.331771331224	0.01
4	6336	0.331771331224	0
4	6376	0.341538329205	0.01
4	6377	0.341538329205	0
4	6417	0.343520888217	0.01
4	6418	0.343520888217	0
4	6458	0.349042097128	0.01
4	6459	0.349042097128	0
4	6499	0.352823555437	0.01
4	6500	0.352823555437	0
4	6538	0.353078702585	0.01
4	6539	0.353078702585	0
4	6579	0.353111629153	0.01
4	6580	0.353111629153	0
4	6620	0.354648554308	0.01
4	6621	0.354648554308	0
4	6661	0.360460393515	0.01
4	6662	0.360460393515	0
4	6700	0.360575579349	0.01
4	6701	0.360575579349	0
4	6741	0.362481824426	0.01
4	6742	0.362481824426	0
4	6782	0.363921114221	0.01
4	6783	0.363921114221	0
4	6823	0.364501661051	0.01
4	6824	0.364501661051	0
4	6864	0.367450505501	0.01
4	6865	0.367450505501	0
4	6903	0.367695935516	0.01
4	6904	0.367695935516	0
4	6944	0.368633778171	0.01
4	6945	0.368633778171	0
4	6985	0.368989531687	0.01
4	6986	0.368989531687	0
4	7026	0.371032968382	0.01
4	7027	0.371032968382	0
4	7067	0.374090846123	0.01
4	7068	0.374090846123	0
4	7108	0.376392171309	0.01
4	7109	0.376392171309	0
4	7149	0.378584556431	0.01
4	7150	0.378584556431	0
4	7190	0.379961584207	0.01
4	7191	0.379961584207	0
4	7231	0.382413848631	0.01
4	7232	0.382413848631	0
4	7272	0.389355138792	0.01
4	7273	0.389355138792	0
4	7311	0.389449337334	0.01
4	7312	0.389449337334	0
4	7352	0.3949876263	0.01
4	7353	0.3949876263	0
4	7393	0.401933337712	0.01
4	7394	0.401933337712	0
4	7432	0.402191414718	0.01
4	7433	0.402191414718	0
4	7473	0.4024153038	0.01
4	7474	0.4024153038	0
4	7514	0.403301972592	0.01
4	7515	0.403301972592	0
4	7555	0.405925898754	0.01
4	7556	0.405925898754	0
4	7596	0.406210904645	0.01
4	7597	0.406210904645	0
4	7637	0.408973822805	0.01
4	7638	0.408973822805	0
4	7678	0.410375913824	0.01
4	7679	0.410375913824	0
4	7719	0.41403096636	0.01
4	7720	0.41403096636	0
4	7760	0.415651952654	0.01
4	7761	0.415651952654	0
4	7801	0.41969112166	0.01
4	7802	0.41969112166	0
4	7840	0.419740977851	0.01
4	7841	0.419740977851	0
4	7881	0.430111236697	0.01
4	7882	0.430111236697	0
4	7922	0.43200344018	0.01
4	7923	0.43200344018	0
4	7963	0.433084245575	0.01
4	7964	0.433084245575	0
4	8002	0.433295037835	0.01
4	8003	0.433295037835	0
4	8043	0.44016628462	0.01
4	8044	0.44016628462	0
4	8084	0.440487744701	0.01
4	8085	0.440487744701	0
4	8125	0.44153196731	0.01
4	8126	0.44153196731	0
4	8166	0.442169649407	0.01
4	8167	0.442169649407	0
4	8207	0.442740787248	0.01
4	8208	0.442740787248	0
4	8248	0.443391620682	0.01
4	8249	0.443391620682	0
4	8289	0.44616897523	0.01
4	8290	0.44616897523	0
4	8330	0.452998825035	0.01
4	8331	0.452998825035	0
4	8371	0.453583926237	0.01
4	8372	0.453583926237	0
4	8412	0.455020657907	0.01
4	8413	0.455020657907	0
4	8453	0.457302744576	0.01
4	8454	0.457302744576	0
4	8494	0.461770024278	0.01
4	8495	0.461770024278	0
4	8535	0.464025545145	0.01
4	8536	0.464025545145	0
4	8576	0.46434651336	0.01
4	8577	0.46434651336	0
4	8617	0.466824586375	0.01
4	8618	0.466824586375	0
4	8656	0.46687425279	0.01
4	8657	0.46687425279	0
4	8695	0.467061763565	0.01
4	8696	0.467061763565	0
4	8736	0.468170300512	0.01
4	8737	0.468170300512	0
4	8777	0.468824721275	0.01
4	8778	0.468824721275	0
4	8816	0.469034145822	0.01
4	8817	0.469034145822	0
4	8857	0.471263367828	0.01
4	8858	0.471263367828	0
4	8898	0.471778537561	0.01
4	8899	0.471778537561	0
4	8939	0.473555594986	0.01
4	8940	0.473555594986	0
4	8980	0.475756532047	0.01
4	8981	0.475756532047	0
4	9021	0.477182445005	0.01
4	9022	0.477182445005	0
4	9062	0.482222222393	0.01
4	9063	0.482222222393	0
4	9103	0.483689962327	0.01
4	9104	0.483689962327	0
4	9144	0.484926067081	0.01
4	9145	0.484926067081	0
4	9185	0.486878651127	0.01
4	9186	0.486878651127	0
4	9226	0.487674547916	0.01
4	9227	0.487674547916	0
4	9267	0.491782652884	0.01
4	9268	0.491782652884	0
4	9308	0.493344990464	0.01
4	9309	0.493344990464	0
4	9349	0.496887697103	0.01
4	9350	0.496887697103	0
4	9388	0.497134516046	0.01
4	9389	0.497134516046	0
4	9429	0.498120273583	0.01
4	9430	0.498120273583	0
4	9470	0.502856745689	0.01
4	9471	0.502856745689	0
4	9511	0.50403935126	0.01
4	9512	0.50403935126	0
4	9552	0.504354695366	0.01
4	9553	0.504354695366	0
4	9591	0.504513835676	0.01
4	9592	0.504513835676	0
4	9632	0.508729396393	0.01
4	9633	0.508729396393	0
4	9671	0.508855443282	0.01
4	9672	0.508855443282	0
4	9712	0.509996455258	0.01
4	9713	0.509996455258	0
4	9762	0.511501994562	0.01
4	9763	0.511501994562	0
4	9792	0.511528554562	0.01
4	9793	0.511528554562	0
4	9833	0.513327344686	0.01
4	9834	0.513327344686	0
4	9874	0.515507835859	0.01
4	9875	0.515507835859	0
4	9913	0.51563842305	0.01
4	9914	0.51563842305	0
4	9954	0.51667082996	0.01
4	9955	0.51667082996	0
4	9995	0.518116034435	0.01
4	9996	0.518116034435	0
4	10036	0.519909406108	0.01
4	10037	0.519909406108	0
4	10077	0.520195852651	0.01
4	10078	0.520195852651	0
4	10118	0.522308734639	0.01
4	10119	0.522308734639	0
4	10159	0.523321262573	0.01
4	10160	0.523321262573	0
4	10200	0.524510194606	0.01
4	10201	0.524510194606	0
4	10241	0.527864064072	0.01
4	10242	0.527864064072	0
4	10282	0.534154059177	0.01
4	10283	0.534154059177	0
4	10323	0.534971494485	0.01
4	10324	0.534971494485	0
4	10362	0.535015349246	0.01
4	10363	0.535015349246	0
4	10403	0.536491622731	0.01
4	10404	0.536491622731	0
4	10444	0.537627398117	0.01
4	10445	0.537627398117	0
4	10485	0.539409105721	0.01
4	10486	0.539409105721	0
4	10524	0.539516979634	0.01
4	10525	0.539516979634	0
4	10565	0.540537969959	0.01
4	10566	0.540537969959	0
4	10606	0.543434262207	0.01
4	10607	0.543434262207	0
4	10647	0.547396172799	0.01
4	10648	0.547396172799	0
4	10688	0.549327044398	0.01
4	10689	0.549327044398	0
4	10729	0.549697356505	0.01
4	10730	0.549697356505	0
4	10770	0.550329830717	0.01
4	10771	0.550329830717	0
4	10811	0.551551339067	0.01
4	10812	0.551551339067	0
4	10850	0.551761967905	0.01
4	10851	0.551761967905	0
4	10891	0.552394822687	0.01
4	10892	0.552394822687	0
4	10930	0.552516171287	0.01
4	10931	0.552516171287	0
4	10971	0.555018068608	0.01
4	10972	0.555018068608	0
4	11010	0.555062505912	0.01
4	11011	0.555062505912	0
4	11049	0.555207738028	0.01
4	11050	0.555207738028	0
4	11090	0.557435967501	0.01
4	11091	0.557435967501	0
4	11129	0.55767010758	0.01
4	11130	0.55767010758	0
4	11170	0.558330320968	0.01
4	11171	0.558330320968	0
4	11211	0.561003457803	0.01
4	11212	0.561003457803	0
4	11250	0.561181629718	0.01
4	11251	0.561181629718	0
4	11291	0.567576947233	0.01
4	11292	0.567576947233	0
4	11332	0.572015538277	0.01
4	11333	0.572015538277	0
4	11373	0.573051385167	0.01
4	11374	0.573051385167	0
4	11414	0.582726560065	0.01
4	11415	0.582726560065	0
4	11455	0.584186804106	0.01
4	11456	0.584186804106	0
4	11496	0.586193852882	0.01
4	11497	0.586193852882	0
4	11535	0.586372195047	0.01
4	11536	0.586372195047	0
4	11574	0.586422717291	0.01
4	11575	0.586422717291	0
4	11613	0.586558429047	0.01
4	11614	0.586558429047	0
4	11652	0.586671796809	0.01
4	11653	0.586671796809	0
4	11693	0.587890915171	0.01
4	11694	0.587890915171	0
4	11734	0.590386951634	0.01
4	11735	0.590386951634	0
4	11775	0.591246796039	0.01
4	11776	0.591246796039	0
4	11816	0.592229886757	0.01
4	11817	0.592229886757	0
4	11857	0.596750687652	0.01
4	11858	0.596750687652	0
4	11898	0.598953479809	0.01
4	11899	0.598953479809	0
4	11939	0.60180174184	0.01
4	11940	0.60180174184	0
4	11980	0.603858152477	0.01
4	11981	0.603858152477	0
4	12021	0.604462808753	0.01
4	12022	0.604462808753	0
4	12062	0.605906126248	0.01
4	12063	0.605906126248	0
4	12101	0.606155847964	0.01
4	12102	0.606155847964	0
4	12142	0.607916884841	0.01
4	12143	0.607916884841	0
4	12183	0.608310326218	0.01
4	12184	0.608310326218	0
4	12224	0.61062935815	0.01
4	12225	0.61062935815	0
4	12265	0.617415219579	0.01
4	12266	0.617415219579	0
4	12306	0.621035441602	0.01
4	12307	0.621035441602	0
4	12347	0.622506555112	0.01
4	12348	0.622506555112	0
4	12386	0.62257346463	0.01
4	12387	0.62257346463	0
4	12427	0.623142664998	0.01
4	12428	0.623142664998	0
4	12468	0.625206506404	0.01
4	12469	0.625206506404	0
4	12509	0.626025760724	0.01
4	12510	0.626025760724	0
4	12550	0.630632974477	0.01
4	12551	0.630632974477	0
4	12591	0.637404456283	0.01
4	12592	0.637404456283	0
4	12632	0.637929967103	0.01
4	12633	0.637929967103	0
4	12673	0.638293125538	0.01
4	12674	0.638293125538	0
4	12714	0.639612131138	0.01
4	12715	0.639612131138	0
4	12755	0.642623833424	0.01
4	12756	0.642623833424	0
4	12796	0.650000777375	0.01
4	12797	0.650000777375	0
4	12837	0.653408640584	0.01
4	12838	0.653408640584	0
4	12878	0.656455981145	0.01
4	12879	0.656455981145	0
4	12919	0.657561579812	0.01
4	12920	0.657561579812	0
4	12960	0.658692825654	0.01
4	12961	0.658692825654	0
4	13008	0.658942876752	0.01
4	13009	0.658942876752	0
4	13040	0.658969436752	0.01
4	13041	0.658969436752	0
4	13081	0.664310228248	0.01
4	13082	0.664310228248	0
4	13120	0.664336788248	0.01
4	13121	0.664336788248	0
4	13161	0.666688031734	0.01
4	13162	0.666688031734	0
4	13202	0.668229106376	0.01
4	13203	0.668229106376	0
4	13243	0.672785725862	0.01
4	13244	0.672785725862	0
4	13284	0.674992376467	0.01
4	13285	0.674992376467	0
4	13325	0.679141681232	0.01
4	13326	0.679141681232	0
4	13366	0.679918948364	0.01
4	13367	0.679918948364	0
4	13436	0.682966345087	0.01
4	13437	0.682966345087	0
4	13475	0.683099555361	0.01
4	13476	0.683099555361	0
4	13516	0.688487670731	0.01
4	13517	0.688487670731	0
4	13557	0.690993826919	0.01
4	13558	0.690993826919	0
4	13598	0.692855174032	0.01
4	13599	0.692855174032	0
4	13639	0.696709783027	0.01
4	13640	0.696709783027	0
4	13680	0.698015270268	0.01
4	13681	0.698015270268	0
4	13721	0.699471316034	0.01
4	13722	0.699471316034	0
4	13762	0.700554261021	0.01
4	13763	0.700554261021	0
4	13803	0.702763154631	0.01
4	13804	0.702763154631	0
4	13844	0.707042109677	0.01
4	13845	0.707042109677	0
4	13885	0.708137847065	0.01
4	13886	0.708137847065	0
4	13926	0.712535377644	0.01
4	13927	0.712535377644	0
4	13967	0.712876132361	0.01
4	13968	0.712876132361	0
4	14008	0.715355026679	0.01
4	14009	0.715355026679	0
4	14049	0.716782248986	0.01
4	14050	0.716782248986	0
4	14090	0.722315209322	0.01
4	14091	0.722315209322	0
4	14131	0.724681888369	0.01
4	14132	0.724681888369	0
4	14172	0.731286256274	0.01
4	14173	0.731286256274	0
4	14213	0.731735070681	0.01
4	14214	0.731735070681	0
4	14254	0.736319569933	0.01
4	14255	0.736319569933	0
4	14295	0.738090003622	0.01
4	14296	0.738090003622	0
4	14336	0.73927435323	0.01
4	14337	0.73927435323	0
4	14377	0.739982750458	0.01
4	14378	0.739982750458	0
4	14418	0.742583328742	0.01
4	14419	0.742583328742	0
4	14459	0.743526520183	0.01
4	14460	0.743526520183	0
4	14500	0.744371327082	0.01
4	14501	0.744371327082	0
4	14541	0.748588662046	0.01
4	14542	0.748588662046	0
4	14582	0.749753024152	0.01
4	14583	0.749753024152	0
4	14623	0.751127015424	0.01
4	14624	0.751127015424	0
4	14664	0.752506041268	0.01
4	14665	0.752506041268	0
4	14705	0.755386824478	0.01
4	14706	0.755386824478	0
4	14746	0.758717133933	0.01
4	14747	0.758717133933	0
4	14787	0.759331868479	0.01
4	14788	0.759331868479	0
4	14828	0.76434731315	0.01
4	14829	0.76434731315	0
4	14869	0.766500630448	0.01
4	14870	0.766500630448	0
4	14910	0.77110313718	0.01
4	14911	0.77110313718	0
4	14949	0.771286014476	0.01
4	14950	0.771286014476	0
4	14990	0.772957769611	0.01
4	14991	0.772957769611	0
4	15031	0.781932366433	0.01
4	15032	0.781932366433	0
4	15072	0.784074276526	0.01
4	15073	0.784074276526	0
4	15111	0.784179328707	0.01
4	15112	0.784179328707	0
4	15152	0.787686656742	0.01
4	15153	0.787686656742	0
4	15193	0.794333780995	0.01
4	15194	0.794333780995	0
4	15234	0.799002957439	0.01
4	15235	0.799002957439	0
4	15275	0.801603049457	0.01
4	15276	0.801603049457	0
4	15316	0.805032895665	0.01
4	15317	0.805032895665	0
4	15357	0.814956961155	0.01
4	15358	0.814956961155	0
4	15398	0.815259500045	0.01
4	15399	0.815259500045	0
4	15439	0.815815326139	0.01
4	15440	0.815815326139	0
4	15480	0.816559889705	0.01
4	15481	0.816559889705	0
4	15521	0.81755482966	0.01
4	15522	0.81755482966	0
4	15562	0.818045768624	0.01
4	15563	0.818045768624	0
4	15603	0.822489263029	0.01
4	15604	0.822489263029	0
4	15644	0.82333704771	0.01
4	15645	0.82333704771	0
4	15685	0.826141001604	0.01
4	15686	0.826141001604	0
4	15726	0.826638190653	0.01
4	15727	0.826638190653	0
4	15767	0.827991130413	0.01
4	15768	0.827991130413	0
4	15808	0.828752189833	0.01
4	15809	0.828752189833	0
4	15847	0.828902392175	0.01
4	15848	0.828902392175	0
4	15888	0.83155703812	0.01
4	15889	0.83155703812	0
4	15929	0.832731448863	0.01
4	15930	0.832731448863	0
4	15970	0.833170896354	0.01
4	15971	0.833170896354	0
4	16011	0.836701219913	0.01
4	16012	0.836701219913	0
4	16052	0.841796122415	0.01
4	16053	0.841796122415	0
4	16093	0.844285646573	0.01
4	16094	0.844285646573	0
4	16134	0.845641617616	0.01
4	16135	0.845641617616	0
4	16175	0.846782863132	0.01
4	16176	0.846782863132	0
4	16214	0.846809423132	0.01
4	16215	0.846809423132	0
4	16255	0.847328961122	0.01
4	16256	0.847328961122	0
4	16294	0.847534525186	0.01
4	16295	0.847534525186	0
4	16335	0.84884125212	0.01
4	16336	0.84884125212	0
4	16376	0.850638548029	0.01
4	16377	0.850638548029	0
4	16417	0.85598119737	0.01
4	16418	0.85598119737	0
4	16458	0.860213765066	0.01
4	16459	0.860213765066	0
4	16499	0.860774188022	0.01
4	16500	0.860774188022	0
4	16540	0.862520266125	0.01
4	16541	0.862520266125	0
4	16581	0.865689637539	0.01
4	16582	0.865689637539	0
4	16622	0.866750386869	0.01
4	16623	0.866750386869	0
4	16663	0.869816399681	0.01
4	16664	0.869816399681	0
4	16704	0.870354340738	0.01
4	16705	0.870354340738	0
4	16745	0.870874104642	0.01
4	16746	0.870874104642	0
4	16786	0.874646402296	0.01
4	16787	0.874646402296	0
4	16827	0.87517533142	0.01
4	16828	0.87517533142	0
4	16868	0.876450594859	0.01
4	16869	0.876450594859	0
4	16909	0.878518937337	0.01
4	16910	0.878518937337	0
4	16950	0.879380481163	0.01
4	16951	0.879380481163	0
4	16991	0.880576915913	0.01
4	16992	0.880576915913	0
4	17032	0.880882792386	0.01
4	17033	0.880882792386	0
4	17073	0.881672191984	0.01
4	17074	0.881672191984	0
4	17114	0.882796836834	0.01
4	17115	0.882796836834	0
4	17155	0.883643497646	0.01
4	17156	0.883643497646	0
4	17196	0.884260989182	0.01
4	17197	0.884260989182	0
4	17237	0.885329035863	0.01
4	17238	0.885329035863	0
4	17278	0.885858980134	0.01
4	17279	0.885858980134	0
4	17317	0.886120706006	0.01
4	17318	0.886120706006	0
4	17360	0.88856191375	0.01
4	17361	0.88856191375	0
4	17401	0.890056751101	0.01
4	17402	0.890056751101	0
4	17440	0.890230681456	0.01
4	17441	0.890230681456	0
4	17490	0.892337352683	0.01
4	17491	0.892337352683	0
4	17520	0.892363912683	0.01
4	17521	0.892363912683	0
4	17561	0.898021883467	0.01
4	17562	0.898021883467	0
4	17600	0.898252489115	0.01
4	17601	0.898252489115	0
4	17641	0.899907892759	0.01
4	17642	0.899907892759	0
4	17682	0.900922618071	0.01
4	17683	0.900922618071	0
4	17723	0.901481050148	0.01
4	17724	0.901481050148	0
4	17764	0.90340392436	0.01
4	17765	0.90340392436	0
4	17805	0.908580191693	0.01
4	17806	0.908580191693	0
4	17846	0.909454799405	0.01
4	17847	0.909454799405	0
4	17885	0.909582886441	0.01
4	17886	0.909582886441	0
4	17926	0.912428674964	0.01
4	17927	0.912428674964	0
4	17967	0.918655480325	0.01
4	17968	0.918655480325	0
4	18008	0.919357291668	0.01
4	18009	0.919357291668	0
4	18049	0.919714489754	0.01
4	18050	0.919714489754	0
4	18090	0.922773864623	0.01
4	18091	0.922773864623	0
4	18131	0.924477887578	0.01
4	18132	0.924477887578	0
4	18172	0.924931177015	0.01
4	18173	0.924931177015	0
4	18213	0.925872305967	0.01
4	18214	0.925872305967	0
4	18254	0.926482097956	0.01
4	18255	0.926482097956	0
4	18295	0.927287391885	0.01
4	18296	0.927287391885	0
4	18336	0.928895912881	0.01
4	18337	0.928895912881	0
4	18377	0.92945872435	0.01
4	18378	0.92945872435	0
4	18418	0.941881953103	0.01
4	18419	0.941881953103	0
4	18468	0.942526293837	0.01
4	18469	0.942526293837	0
4	18498	0.942552853837	0.01
4	18499	0.942552853837	0
4	18539	0.942973994668	0.01
4	18540	0.942973994668	0
4	18580	0.943633391708	0.01
4	18581	0.943633391708	0
4	18621	0.944823204043	0.01
4	18622	0.944823204043	0
4	18660	0.945052153502	0.01
4	18661	0.945052153502	0
4	18701	0.946424687817	0.01
4	18702	0.946424687817	0
4	18742	0.947436449679	0.01
4	18743	0.947436449679	0
4	18783	0.947934727469	0.01
4	18784	0.947934727469	0
4	18822	0.947984495632	0.01
4	18823	0.947984495632	0
4	18863	0.950054274492	0.01
4	18864	0.950054274492	0
4	18904	0.956281882816	0.01
4	18905	0.956281882816	0
4	18945	0.960649054049	0.01
4	18946	0.960649054049	0
4	18986	0.963429918228	0.01
4	18987	0.963429918228	0
4	19027	0.965240538912	0.01
4	19028	0.965240538912	0
4	19066	0.965277063111	0.01
4	19067	0.965277063111	0
4	19107	0.968972476352	0.01
4	19108	0.968972476352	0
4	19148	0.969683409552	0.01
4	19149	0.969683409552	0
4	19189	0.971602539509	0.01
4	19190	0.971602539509	0
4	19230	0.973992765499	0.01
4	19231	0.973992765499	0
4	19271	0.975801477086	0.01
4	19272	0.975801477086	0
4	19312	0.978349308321	0.01
4	19313	0.978349308321	0
4	19353	0.983045305126	0.01
4	19354	0.983045305126	0
4	19394	0.983961377215	0.01
4	19395	0.983961377215	0
4	19435	0.987470894594	0.01
4	19436	0.987470894594	0
4	19476	0.990858172918	0.01
4	19477	0.990858172918	0
4	19512	0.994100746123	0.01
4	19513	0.994100746123	0
4	19553	0.995744756404	0.01
4	19554	0.995744756404	0
4	19594	0.99874931522	0.01
4	19595	0.99874931522	0
4	19635	0.99948718033	0.01
4	19636	0.99948718033	0
4	19676	1.001338092643	0.01
4	19677	1.001338092643	0
4	19717	1.002182163417	0.01
4	19718	1.002182163417	0
4	19758	1.005153588952	0.01
4	19759	1.005153588952	0
4	19797	1.005237692359	0.01
4	19798	1.005237692359	0
4	19836	1.005264252359	0.01
4	19837	1.005264252359	0
4	19877	1.008314775641	0.01
4	19878	1.008314775641	0
4	19918	1.012882517528	0.01
4	19919	1.012882517528	0
4	19947	1.021031500024	0.01
4	19948	1.021031500024	0
4	19988	1.030862239016	0.01
4	19989	1.030862239016	0
4	20029	1.039310213253	0.01
4	20030	1.039310213253	0
4	20070	1.042142949907	0.01
4	20071	1.042142949907	0
4	20109	1.042219463717	0.01
4	20110	1.042219463717	0
4	20148	1.042467324384	0.01
4	20149	1.042467324384	0
4	20189	1.044426304546	0.01
4	20190	1.044426304546	0
4	20230	1.045453591018	0.01
4	20231	1.045453591018	0
4	20271	1.047451406558	0.01
4	20272	1.047451406558	0
4	20312	1.054161655484	0.01
4	20313	1.054161655484	0
4	20353	1.054986154232	0.01
4	20354	1.054986154232	0
4	20394	1.056421364812	0.01
4	20395	1.056421364812	0
4	20433	1.056539741208	0.01
4	20434	1.056539741208	0
4	20474	1.057546890707	0.01
4	20475	1.057546890707	0
4	20513	1.0576165828	0.01
4	20514	1.0576165828	0
4	20554	1.06065926953	0.01
4	20555	1.06065926953	0
4	20595	1.060973596375	0.01
4	20596	1.060973596375	0
4	20636	1.062205506499	0.01
4	20637	1.062205506499	0
4	20677	1.064354931278	0.01
4	20678	1.064354931278	0
4	20718	1.065244685875	0.01
4	20719	1.065244685875	0
4	20759	1.06991033851	0.01
4	20760	1.06991033851	0
4	20800	1.0728508049	0.01
4	20801	1.0728508049	0
4	20841	1.073242663588	0.01
4	20842	1.073242663588	0
4	20882	1.073957874805	0.01
4	20883	1.073957874805	0
4	20923	1.074475081344	0.01
4	20924	1.074475081344	0
4	20962	1.074518261505	0.01
4	20963	1.074518261505	0
4	21002	1.074787179221	0.01
4	21003	1.074787179221	0
4	21044	1.075589915147	0.01
4	21045	1.075589915147	0
4	21085	1.07685964792	0.01
4	21086	1.07685964792	0
4	21126	1.080590297429	0.01
4	21127	1.080590297429	0
4	21167	1.082963402312	0.01
4	21168	1.082963402312	0
4	21208	1.083294011404	0.01
4	21209	1.083294011404	0
4	21249	1.083844717459	0.01
4	21250	1.083844717459	0
4	21290	1.084987828166	0.01
4	21291	1.084987828166	0
4	21331	1.085543374154	0.01
4	21332	1.085543374154	0
4	21370	1.085749234783	0.01
4	21371	1.085749234783	0
4	21409	1.085836336066	0.01
4	21410	1.085836336066	0
4	21450	1.086845435922	0.01
4	21451	1.086845435922	0
4	21491	1.087344473297	0.01
4	21492	1.087344473297	0
4	21532	1.09414138203	0.01
4	21533	1.09414138203	0
4	21573	1.095661348022	0.01
4	21574	1.095661348022	0
4	21612	1.095690056098	0.01
4	21613	1.095690056098	0
4	21653	1.096150138481	0.01
4	21654	1.096150138481	0
4	21692	1.096284815821	0.01
4	21693	1.096284815821	0
4	21733	1.097068095023	0.01
4	21734	1.097068095023	0
4	21774	1.105152914563	0.01
4	21775	1.105152914563	0
4	21815	1.105653249822	0.01
4	21816	1.105653249822	0
4	21856	1.107153593997	0.01
4	21857	1.107153593997	0
4	21897	1.108553733288	0.01
4	21898	1.108553733288	0
4	21938	1.110983052836	0.01
4	21939	1.110983052836	0
4	21979	1.11243903275	0.01
4	21980	1.11243903275	0
4	22008	1.113376042656	0.01
4	22009	1.113376042656	0
4	22049	1.115695190565	0.01
4	22050	1.115695190565	0
4	22090	1.117597483592	0.01
4	22091	1.117597483592	0
4	22131	1.11932104177	0.01
4	22132	1.11932104177	0
4	22172	1.121905311326	0.01
4	22173	1.121905311326	0
4	22213	1.124239201226	0.01
4	22214	1.124239201226	0
4	22254	1.130916255923	0.01
4	22255	1.130916255923	0
4	22295	1.13248394358	0.01
4	22296	1.13248394358	0
4	22336	1.1354710512	0.01
4	22337	1.1354710512	0
4	22377	1.137628497291	0.01
4	22378	1.137628497291	0
4	22418	1.13885034037	0.01
4	22419	1.13885034037	0
4	22459	1.139169270155	0.01
4	22460	1.139169270155	0
4	22498	1.139196733345	0.01
4	22499	1.139196733345	0
4	22539	1.13983795866	0.01
4	22540	1.13983795866	0
4	22580	1.140962707494	0.01
4	22581	1.140962707494	0
4	22621	1.14235859801	0.01
4	22622	1.14235859801	0
4	22662	1.143919594789	0.01
4	22663	1.143919594789	0
4	22703	1.1446861576	0.01
4	22704	1.1446861576	0
4	22744	1.148020915683	0.01
4	22745	1.148020915683	0
4	22785	1.154768135295	0.01
4	22786	1.154768135295	0
4	22826	1.155517554156	0.01
4	22827	1.155517554156	0
4	22867	1.158414489114	0.01
4	22868	1.158414489114	0
4	22908	1.162199899732	0.01
4	22909	1.162199899732	0
4	22949	1.171485336035	0.01
4	22950	1.171485336035	0
4	22990	1.171796724226	0.01
4	22991	1.171796724226	0
4	23031	1.173337515715	0.01
4	23032	1.173337515715	0
4	23072	1.174060664614	0.01
4	23073	1.174060664614	0
4	23113	1.174661794638	0.01
4	23114	1.174661794638	0
4	23154	1.192323327248	0.01
4	23155	1.192323327248	0
4	23195	1.194636660731	0.01
4	23196	1.194636660731	0
4	23234	1.194728601569	0.01
4	23235	1.194728601569	0
4	23275	1.195438384083	0.01
4	23276	1.195438384083	0
4	23316	1.196474830979	0.01
4	23317	1.196474830979	0
4	23357	1.202246891165	0.01
4	23358	1.202246891165	0
4	23398	1.204221074529	0.01
4	23399	1.204221074529	0
4	23439	1.205581169092	0.01
4	23440	1.205581169092	0
4	23480	1.210364839346	0.01
4	23481	1.210364839346	0
4	23521	1.212786012541	0.01
4	23522	1.212786012541	0
4	23562	1.2157396075	0.01
4	23563	1.2157396075	0
4	23603	1.216410232786	0.01
4	23604	1.216410232786	0
4	23644	1.216911727525	0.01
4	23645	1.216911727525	0
4	23685	1.220056964834	0.01
4	23686	1.220056964834	0
4	23726	1.220815597568	0.01
4	23727	1.220815597568	0
4	23767	1.221449273168	0.01
4	23768	1.221449273168	0
4	23808	1.2274156911	0.01
4	23809	1.2274156911	0
4	23849	1.228143921071	0.01
4	23850	1.228143921071	0
4	23888	1.228170481071	0.01
4	23889	1.228170481071	0
4	23929	1.231273748371	0.01
4	23930	1.231273748371	0
4	23970	1.238314406003	0.01
4	23971	1.238314406003	0
4	24011	1.242017084834	0.01
4	24012	1.242017084834	0
4	24052	1.243774303174	0.01
4	24053	1.243774303174	0
4	24093	1.244549964985	0.01
4	24094	1.244549964985	0
4	24134	1.244881465857	0.01
4	24135	1.244881465857	0
4	24175	1.248430991532	0.01
4	24176	1.248430991532	0
4	24216	1.249652514882	0.01
4	24217	1.249652514882	0
4	24257	1.251852754669	0.01
4	24258	1.251852754669	0
4	24298	1.253170740055	0.01
4	24299	1.253170740055	0
4	24339	1.254044091404	0.01
4	24340	1.254044091404	0
4	24380	1.259251292585	0.01
4	24381	1.259251292585	0
4	24421	1.267432978229	0.01
4	24422	1.267432978229	0
4	24461	1.267701658344	0.01
4	24462	1.267701658344	0
4	24503	1.268218528904	0.01
4	24504	1.268218528904	0
4	24544	1.268632422771	0.01
4	24545	1.268632422771	0
4	24585	1.273940079392	0.01
4	24586	1.273940079392	0
4	24626	1.277120498442	0.01
4	24627	1.277120498442	0
4	24667	1.278897179218	0.01
4	24668	1.278897179218	0
4	24708	1.280685248715	0.01
4	24709	1.280685248715	0
4	24749	1.283641461696	0.01
4	24750	1.283641461696	0
4	24790	1.284825304403	0.01
4	24791	1.284825304403	0
4	24831	1.292577673775	0.01
4	24832	1.292577673775	0
4	24870	1.292768759137	0.01
4	24871	1.292768759137	0
4	24911	1.295712847695	0.01
4	24912	1.295712847695	0
4	24952	1.298675180865	0.01
4	24953	1.298675180865	0
4	24993	1.303807215349	0.01
4	24994	1.303807215349	0
4	25034	1.309150951807	0.01
4	25035	1.309150951807	0
4	25075	1.310501434237	0.01
4	25076	1.310501434237	0
4	25116	1.311465074327	0.01
4	25117	1.311465074327	0
4	25157	1.312209900276	0.01
4	25158	1.312209900276	0
4	25198	1.314275532209	0.01
4	25199	1.314275532209	0
4	25239	1.315587398586	0.01
4	25240	1.315587398586	0
4	25280	1.318539011738	0.01
4	25281	1.318539011738	0
4	25321	1.322317752331	0.01
4	25322	1.322317752331	0
4	25362	1.323154801955	0.01
4	25363	1.323154801955	0
4	25402	1.323427584653	0.01
4	25403	1.323427584653	0
4	25444	1.331121412109	0.01
4	25445	1.331121412109	0
4	25485	1.337597859585	0.01
4	25486	1.337597859585	0
4	25526	1.338970511961	0.01
4	25527	1.338970511961	0
4	25567	1.340553656376	0.01
4	25568	1.340553656376	0
4	25608	1.341291897072	0.01
4	25609	1.341291897072	0
4	25649	1.342434258843	0.01
4	25650	1.342434258843	0
4	25690	1.343346134669	0.01
4	25691	1.343346134669	0
4	25729	1.343385910884	0.01
4	25730	1.343385910884	0
4	25768	1.343465893691	0.01
4	25769	1.343465893691	0
4	25809	1.34640341185	0.01
4	25810	1.34640341185	0
4	25850	1.34738966839	0.01
4	25851	1.34738966839	0
4	25891	1.351971479834	0.01
4	25892	1.351971479834	0
4	25932	1.352517980515	0.01
4	25933	1.352517980515	0
4	25973	1.352800130919	0.01
4	25974	1.352800130919	0
4	26014	1.353108909001	0.01
4	26015	1.353108909001	0
4	26053	1.353316876125	0.01
4	26054	1.353316876125	0
4	26094	1.353922251298	0.01
4	26095	1.353922251298	0
4	26135	1.354239267008	0.01
4	26136	1.354239267008	0
4	26176	1.354635940532	0.01
4	26177	1.354635940532	0
4	26217	1.363981060816	0.01
4	26218	1.363981060816	0
4	26258	1.365769977096	0.01
4	26259	1.365769977096	0
4	26299	1.369282528827	0.01
4	26300	1.369282528827	0
4	26340	1.369599917431	0.01
4	26341	1.369599917431	0
4	26381	1.37138170839	0.01
4	26382	1.37138170839	0
4	26422	1.37450590804	0.01
4	26423	1.37450590804	0
4	26461	1.374743980395	0.01
4	26462	1.374743980395	0
4	26502	1.378498841877	0.01
4	26503	1.378498841877	0
4	26543	1.381133440083	0.01
4	26544	1.381133440083	0
4	26584	1.384749865902	0.01
4	26585	1.384749865902	0
4	26625	1.387760371698	0.01
4	26626	1.387760371698	0
4	26654	1.39332462892	0.01
4	26655	1.39332462892	0
4	26693	1.393414028925	0.01
4	26694	1.393414028925	0
4	26734	1.395448257005	0.01
4	26735	1.395448257005	0
4	26773	1.395624364089	0.01
4	26774	1.395624364089	0
4	26814	1.396697079217	0.01
4	26815	1.396697079217	0
4	26855	1.397935958053	0.01
4	26856	1.397935958053	0
4	26896	1.401144392811	0.01
4	26897	1.401144392811	0
4	26937	1.403433148925	0.01
4	26938	1.403433148925	0
4	26978	1.403765486904	0.01
4	26979	1.403765486904	0
4	27017	1.403809301208	0.01
4	27018	1.403809301208	0
4	27058	1.410231892568	0.01
4	27059	1.410231892568	0
4	27099	1.414028736588	0.01
4	27100	1.414028736588	0
4	27140	1.415247166838	0.01
4	27141	1.415247166838	0
4	27179	1.415447080307	0.01
4	27180	1.415447080307	0
4	27220	1.416470297876	0.01
4	27221	1.416470297876	0
4	27261	1.420402903223	0.01
4	27262	1.420402903223	0
4	27302	1.423351645393	0.01
4	27303	1.423351645393	0
4	27343	1.43209711878	0.01
4	27344	1.43209711878	0
4	27384	1.434002749689	0.01
4	27385	1.434002749689	0
4	27423	1.434104192735	0.01
4	27424	1.434104192735	0
4	27473	1.437630309313	0.01
4	27474	1.437630309313	0
4	27503	1.437656869313	0.01
4	27504	1.437656869313	0
4	27544	1.438522441872	0.01
4	27545	1.438522441872	0
4	27583	1.438602101967	0.01
4	27584	1.438602101967	0
4	27624	1.438913208571	0.01
4	27625	1.438913208571	0
4	27665	1.439834421035	0.01
4	27666	1.439834421035	0
4	27704	1.440066521927	0.01
4	27705	1.440066521927	0
4	27745	1.441431984021	0.01
4	27746	1.441431984021	0
4	27786	1.444370218982	0.01
4	27787	1.444370218982	0
4	27827	1.444945057742	0.01
4	27828	1.444945057742	0
4	27868	1.446020606459	0.01
4	27869	1.446020606459	0
4	27909	1.451589727175	0.01
4	27910	1.451589727175	0
4	27950	1.452463341881	0.01
4	27951	1.452463341881	0
4	27989	1.452711901156	0.01
4	27990	1.452711901156	0
4	28030	1.453301353509	0.01
4	28031	1.453301353509	0
4	28071	1.454193534061	0.01
4	28072	1.454193534061	0
4	28112	1.459428689302	0.01
4	28113	1.459428689302	0
4	28151	1.459455249302	0.01
4	28152	1.459455249302	0
4	28192	1.464650746035	0.01
4	28193	1.464650746035	0
4	28233	1.468429840633	0.01
4	28234	1.468429840633	0
4	28274	1.469206164844	0.01
4	28275	1.469206164844	0
4	28315	1.470318255541	0.01
4	28316	1.470318255541	0
4	28356	1.471679027587	0.01
4	28357	1.471679027587	0
4	28397	1.472010869977	0.01
4	28398	1.472010869977	0
4	28438	1.475609482325	0.01
4	28439	1.475609482325	0
4	28479	1.476238167493	0.01
4	28480	1.476238167493	0
4	28518	1.476465179196	0.01
4	28519	1.476465179196	0
4	28559	1.477612470051	0.01
4	28560	1.477612470051	0
4	28600	1.478582373809	0.01
4	28601	1.478582373809	0
4	28639	1.478612398069	0.01
4	28640	1.478612398069	0
4	28680	1.48292632616	0.01
4	28681	1.48292632616	0
4	28721	1.485318271923	0.01
4	28722	1.485318271923	0
4	28762	1.48968133643	0.01
4	28763	1.48968133643	0
4	28803	1.49019417112	0.01
4	28804	1.49019417112	0
4	28844	1.492606343463	0.01
4	28845	1.492606343463	0
4	28885	1.493199297998	0.01
4	28886	1.493199297998	0
4	28926	1.494703995056	0.01
4	28927	1.494703995056	0
4	28967	1.495360096467	0.01
4	28968	1.495360096467	0
4	29008	1.49649081022	0.01
4	29009	1.49649081022	0
4	29049	1.497457819422	0.01
4	29050	1.497457819422	0
4	29090	1.499028000074	0.01
4	29091	1.499028000074	0
5	89	0.001591749009	0.01
5	90	0.001591749009	0.02
5	91	0.001591749009	0.01
5	98	0.001605029009	0
5	164	0.005349677117	0.01
5	165	0.005349677117	0.02
5	166	0.005349677117	0.01
5	173	0.005362957117	0
5	207	0.011979501677	0.01
5	208	0.011979501677	0.02
5	209	0.011979501677	0.01
5	216	0.011992781677	0
5	248	0.015323924078	0.01
5	249	0.015323924078	0.02
5	250	0.015323924078	0.01
5	257	0.015337204078	0
5	289	0.02052043225	0.01
5	290	0.02052043225	0.02
5	291	0.02052043225	0.01
5	298	0.02053371225	0
5	330	0.022609657267	0.01
5	331	0.022609657267	0.02
5	332	0.022609657267	0.01
5	339	0.022622937267	0
5	371	0.025621225784	0.01
5	372	0.025621225784	0.02
5	373	0.025621225784	0.01
5	380	0.025634505784	0
5	412	0.026904644129	0.01
5	413	0.026904644129	0.02
5	414	0.026904644129	0.01
5	421	0.026917924129	0
5	453	0.029937716077	0.01
5	454	0.029937716077	0.02
5	455	0.029937716077	0.01
5	462	0.029950996077	0
5	494	0.031682358467	0.01
5	495	0.031682358467	0.02
5	496	0.031682358467	0.01
5	503	0.031695638467	0
5	535	0.033158013051	0.01
5	536	0.033158013051	0.02
5	537	0.033158013051	0.01
5	544	0.033171293051	0
5	576	0.033570419615	0.01
5	577	0.033570419615	0.02
5	578	0.033570419615	0.01
5	585	0.033583699615	0
5	617	0.035251089026	0.01
5	618	0.035251089026	0.02
5	619	0.035251089026	0.01
5	626	0.035264369026	0
5	658	0.035575362005	0.01
5	659	0.035575362005	0.02
5	660	0.035575362005	0.01
5	667	0.035588642005	0
5	699	0.041331192048	0.01
5	700	0.041331192048	0.02
5	701	0.041331192048	0.01
5	708	0.041344472048	0
5	740	0.043230181215	0.01
5	741	0.043230181215	0.02
5	742	0.043230181215	0.01
5	749	0.043243461215	0
5	779	0.043354411796	0.01
5	780	0.043354411796	0.02
5	781	0.043354411796	0.01
5	788	0.043367691796	0
5	820	0.043729263928	0.01
[...]
11	3220	0.164571951588	0
11	3261	0.170350102772	0
11	3302	0.177379060133	0
11	3341	0.177498622059	0
11	3382	0.181755962248	0
11	3423	0.182151897719	0
11	3464	0.184875761168	0
11	3505	0.18641400077	0
11	3546	0.187681860809	0
11	3587	0.188293070613	0
11	3628	0.192560197188	0
11	3678	0.194335201045	0
11	3708	0.194361761045	0
11	3749	0.195082838337	0
11	3790	0.196300927562	0
11	3831	0.202189888117	0
11	3872	0.20294274682	0
11	3911	0.20299474231	0
11	3952	0.205616687046	0
11	3993	0.206267119082	0
11	4034	0.20901647899	0
11	4075	0.20929976306	0
11	4116	0.210543836898	0
11	4157	0.210856788439	0
11	4198	0.213417637147	0
11	4239	0.216179563338	0
11	4280	0.21894619627	0
11	4321	0.225483189072	0
11	4362	0.22774502603	0
11	4403	0.233050143061	0
11	4444	0.241362085252	0
11	4483	0.241494269273	0
11	4524	0.244592292631	0
11	4565	0.251110134585	0
11	4606	0.252465738589	0
11	4647	0.254456665876	0
11	4697	0.258179529162	0
11	4727	0.258206179652	0
11	4768	0.261238317512	0
11	4809	0.262614204469	0
11	4850	0.263671138926	0
11	4891	0.264092205502	0
11	4932	0.271987472037	0
11	4973	0.279205354047	0
11	5014	0.280265277206	0
11	5053	0.28043443619	0
11	5094	0.285647579795	0
11	5135	0.288233875513	0
11	5176	0.288960359951	0
11	5215	0.289148109046	0
11	5256	0.290279898129	0
11	5297	0.29422001326	0
11	5338	0.294811817006	0
11	5379	0.295529739643	0
11	5420	0.297016906027	0
11	5461	0.297683712704	0
11	5502	0.299107728835	0
11	5543	0.301495755576	0
11	5584	0.303783136817	0
11	5625	0.305554658109	0
11	5666	0.305841164152	0
11	5705	0.305932440251	0
11	5746	0.307200304504	0
11	5787	0.308923639488	0
11	5828	0.31021345647	0
11	5869	0.311640225036	0
11	5910	0.313736803246	0
11	5951	0.314734187912	0
11	5992	0.315011361555	0
11	6033	0.316232327245	0
11	6074	0.319454991243	0
11	6115	0.324142730525	0
11	6156	0.325878670489	0
11	6206	0.327900208815	0
11	6236	0.327926768815	0
11	6277	0.328450023891	0
11	6318	0.330082061019	0
11	6359	0.331796931224	0
11	6400	0.341563929205	0
11	6441	0.343546488217	0
11	6482	0.349067697128	0
11	6523	0.352849155437	0
11	6573	0.353104302585	0
11	6603	0.353137229153	0
11	6644	0.354674154308	0
11	6685	0.360485993515	0
11	6724	0.360601179349	0
11	6765	0.362507424426	0
11	6806	0.363946714221	0
11	6847	0.364527261051	0
11	6888	0.367476105501	0
11	6927	0.367721535516	0
11	6968	0.368659378171	0
11	7009	0.369015131687	0
11	7050	0.371058568382	0
11	7091	0.374116446123	0
11	7132	0.376417771309	0
11	7173	0.378610156431	0
11	7214	0.379987184207	0
11	7255	0.382439448631	0
11	7296	0.389380738792	0
11	7335	0.389474937334	0
11	7376	0.3950132263	0
11	7417	0.401958937712	0
11	7458	0.402217014718	0
11	7497	0.4024409038	0
11	7538	0.403327572592	0
11	7579	0.405951498754	0
11	7620	0.406236504645	0
11	7661	0.408999422805	0
11	7702	0.410401513824	0
11	7743	0.41405656636	0
11	7784	0.415677552654	0
11	7825	0.41971672166	0
11	7864	0.419766577851	0
11	7905	0.430136836697	0
11	7946	0.43202904018	0
11	7987	0.433109845575	0
11	8026	0.433320637835	0
11	8067	0.44019188462	0
11	8108	0.440513344701	0
11	8149	0.44155756731	0
11	8190	0.442195249407	0
11	8231	0.442766387248	0
11	8272	0.443417220682	0
11	8313	0.44619457523	0
11	8354	0.453024425035	0
11	8395	0.453609526237	0
11	8436	0.455046257907	0
11	8477	0.457328344576	0
11	8518	0.461795624278	0
11	8559	0.464051145145	0
11	8600	0.46437211336	0
11	8641	0.466850186375	0
11	8680	0.46689985279	0
11	8719	0.467087363565	0
11	8760	0.468195900512	0
11	8801	0.468850321275	0
11	8840	0.469059745822	0
11	8881	0.471288967828	0
11	8922	0.471804137561	0
11	8963	0.473581194986	0
11	9004	0.475782132047	0
11	9045	0.477208045005	0
11	9086	0.482247822393	0
11	9127	0.483715562327	0
11	9168	0.484951667081	0
11	9209	0.486904251127	0
11	9250	0.487700147916	0
11	9291	0.491808252884	0
11	9332	0.493370590464	0
11	9373	0.496913297103	0
11	9412	0.497160116046	0
11	9453	0.498145873583	0
11	9494	0.502882345689	0
11	9535	0.50406495126	0
11	9576	0.504380295366	0
11	9615	0.504539435676	0
11	9656	0.508754996393	0
11	9695	0.508881043282	0
11	9736	0.510022055258	0
11	9786	0.511527594562	0
11	9816	0.511554154562	0
11	9857	0.513352944686	0
11	9898	0.515533435859	0
11	9937	0.51566402305	0
11	9978	0.51669642996	0
11	10019	0.518141634435	0
11	10060	0.519935006108	0
11	10101	0.520221452651	0
11	10142	0.522334334639	0
11	10183	0.523346862573	0
11	10224	0.524535794606	0
11	10265	0.527889664072	0
11	10306	0.534179659177	0
11	10347	0.534997094485	0
11	10386	0.535040949246	0
11	10427	0.536517222731	0
11	10468	0.537652998117	0
11	10509	0.539434705721	0
11	10548	0.539542579634	0
11	10589	0.540563569959	0
11	10630	0.543459862207	0
11	10671	0.547421772799	0
11	10712	0.549352644398	0
11	10753	0.549722956505	0
11	10794	0.550355430717	0
11	10835	0.551576939067	0
11	10874	0.551787567905	0
11	10915	0.552420422687	0
11	10954	0.552541771287	0
11	10995	0.555043668608	0
11	11034	0.555088105912	0
11	11073	0.555233338028	0
11	11114	0.557461567501	0
11	11153	0.55769570758	0
11	11194	0.558355920968	0
11	11235	0.561029057803	0
11	11274	0.561207229718	0
11	11315	0.567602547233	0
11	11356	0.572041138277	0
11	11397	0.573076985167	0
11	11438	0.582752160065	0
11	11479	0.584212404106	0
11	11520	0.586219452882	0
11	11559	0.586397795047	0
11	11598	0.586448317291	0
11	11637	0.586584029047	0
11	11676	0.586697396809	0
11	11717	0.587916515171	0
11	11758	0.590412551634	0
11	11799	0.591272396039	0
11	11840	0.592255486757	0
11	11881	0.596776287652	0
11	11922	0.598979079809	0
11	11963	0.60182734184	0
11	12004	0.603883752477	0
11	12045	0.604488408753	0
11	12086	0.605931726248	0
11	12125	0.606181447964	0
11	12166	0.607942484841	0
11	12207	0.608335926218	0
11	12248	0.61065495815	0
11	12289	0.617440819579	0
11	12330	0.621061041602	0
11	12371	0.622532155112	0
11	12410	0.62259906463	0
11	12451	0.623168264998	0
11	12492	0.625232106404	0
11	12533	0.626051360724	0
11	12574	0.630658574477	0
11	12615	0.637430056283	0
11	12656	0.637955567103	0
11	12697	0.638318725538	0
11	12738	0.639637731138	0
11	12779	0.642649433424	0
11	12820	0.650026377375	0
11	12861	0.653434240584	0
11	12902	0.656481581145	0
11	12943	0.657587179812	0
11	12984	0.658718425654	0
11	13034	0.658968476752	0
11	13064	0.658995036752	0
11	13114	0.664335828248	0
11	13144	0.664362388248	0
11	13185	0.666713631734	0
11	13226	0.668254706376	0
11	13267	0.672811325862	0
11	13308	0.675017976467	0
11	13349	0.679167281232	0
11	13390	0.679944548364	0
11	13420	0.682679359802	0
11	13460	0.682991945087	0
11	13499	0.683125155361	0
11	13540	0.688513270731	0
11	13581	0.691019426919	0
11	13622	0.692880774032	0
11	13663	0.696735383027	0
11	13704	0.698040870268	0
11	13745	0.699496916034	0
11	13786	0.700579861021	0
11	13827	0.702788754631	0
11	13868	0.707067709677	0
11	13909	0.708163447065	0
11	13950	0.712560977644	0
11	13991	0.712901732361	0
11	14032	0.715380626679	0
11	14073	0.716807848986	0
11	14114	0.722340809322	0
11	14155	0.724707488369	0
11	14196	0.731311856274	0
11	14237	0.731760670681	0
11	14278	0.736345169933	0
11	14319	0.738115603622	0
11	14360	0.73929995323	0
11	14401	0.740008350458	0
11	14442	0.742608928742	0
11	14483	0.743552120183	0
11	14524	0.744396927082	0
11	14565	0.748614262046	0
11	14606	0.749778624152	0
11	14647	0.751152615424	0
11	14688	0.752531641268	0
11	14729	0.755412424478	0
11	14770	0.758742733933	0
11	14811	0.759357468479	0
11	14852	0.76437291315	0
11	14893	0.766526230448	0
11	14934	0.77112873718	0
11	14973	0.771311614476	0
11	15014	0.772983369611	0
11	15055	0.781957966433	0
11	15096	0.784099876526	0
11	15135	0.784204928707	0
11	15176	0.787712256742	0
11	15217	0.794359380995	0
11	15258	0.799028557439	0
11	15299	0.801628649457	0
11	15340	0.805058495665	0
11	15381	0.814982561155	0
11	15422	0.815285100045	0
11	15463	0.815840926139	0
11	15504	0.816585489705	0
11	15545	0.81758042966	0
11	15586	0.818071368624	0
11	15627	0.822514863029	0
11	15668	0.82336264771	0
11	15709	0.826166601604	0
11	15750	0.826663790653	0
11	15791	0.828016730413	0
11	15832	0.828777789833	0
11	15871	0.828927992175	0
11	15912	0.83158263812	0
11	15953	0.832757048863	0
11	15994	0.833196496354	0
11	16035	0.836726819913	0
11	16076	0.841821722415	0
11	16117	0.844311246573	0
11	16158	0.845667217616	0
11	16208	0.846808463132	0
11	16238	0.846835023132	0
11	16279	0.847354561122	0
11	16318	0.847560125186	0
11	16359	0.84886685212	0
11	16400	0.850664148029	0
11	16441	0.85600679737	0
11	16482	0.860239365066	0
11	16523	0.860799788022	0
11	16564	0.862545866125	0
11	16605	0.865715237539	0
11	16646	0.866775986869	0
11	16687	0.869841999681	0
11	16728	0.870379940738	0
11	16769	0.870899704642	0
11	16810	0.874672002296	0
11	16851	0.87520093142	0
11	16892	0.876476194859	0
11	16933	0.878544537337	0
11	16974	0.879406081163	0
11	17015	0.880602515913	0
11	17056	0.880908392386	0
11	17097	0.881697791984	0
11	17138	0.882822436834	0
11	17179	0.883669097646	0
11	17220	0.884286589182	0
11	17261	0.885354635863	0
11	17302	0.885884580134	0
11	17343	0.886146306006	0
11	17384	0.88858751375	0
11	17425	0.890082351101	0
11	17464	0.890256281456	0
11	17514	0.892362952683	0
11	17544	0.892389512683	0
11	17585	0.898047483467	0
11	17624	0.898278089115	0
11	17665	0.899933492759	0
11	17706	0.900948218071	0
11	17747	0.901506650148	0
11	17788	0.90342952436	0
11	17829	0.908605791693	0
11	17870	0.909480399405	0
11	17909	0.909608486441	0
11	17950	0.912454274964	0
11	17991	0.918681080325	0
11	18032	0.919382891668	0
11	18073	0.919740089754	0
11	18114	0.922799464623	0
11	18155	0.924503487578	0
11	18196	0.924956777015	0
11	18237	0.925897905967	0
11	18278	0.926507697956	0
11	18319	0.927312991885	0
11	18360	0.928921512881	0
11	18401	0.92948432435	0
11	18442	0.941907553103	0
11	18492	0.942551893837	0
11	18522	0.942578453837	0
11	18563	0.942999594668	0
11	18604	0.943658991708	0
11	18645	0.944848804043	0
11	18684	0.945077753502	0
11	18725	0.946450287817	0
11	18766	0.947462049679	0
11	18807	0.947960327469	0
11	18846	0.948010095632	0
11	18887	0.950079874492	0
11	18928	0.956307482816	0
11	18969	0.960674654049	0
11	19010	0.963455518228	0
11	19060	0.965266138912	0
11	19090	0.965302663111	0
11	19131	0.968998076352	0
11	19172	0.969709009552	0
11	19213	0.971628139509	0
11	19254	0.974018365499	0
11	19295	0.975827077086	0
11	19336	0.978374908321	0
11	19377	0.983070905126	0
11	19418	0.983986977215	0
11	19459	0.987496494594	0
11	19496	0.990883772918	0
11	19536	0.994126346123	0
11	19577	0.995770356404	0
11	19618	0.99877491522	0
11	19659	0.99951278033	0
11	19700	1.001363692643	0
11	19741	1.002207763417	0
11	19782	1.005179188952	0
11	19830	1.005263292359	0
11	19860	1.005289852359	0
11	19901	1.008340375641	0
11	19971	1.021057100024	0
11	20012	1.030887839016	0.0020491803278688
11	20053	1.039335813253	0.0020449897750511
11	20094	1.042168549907	0.0020408163265306
11	20133	1.042245063717	0.0020366598778004
11	20172	1.042492924384	0.0020325203252033
11	20213	1.044451904546	0.0020283975659229
11	20254	1.045479191018	0.0020242914979757
11	20295	1.047477006558	0.002020202020202
11	20336	1.054187255484	0.0020161290322581
11	20377	1.055011754232	0.0020120724346077
11	20418	1.056446964812	0.0020080321285141
11	20457	1.056565341208	0.0020040080160321
11	20498	1.057572490707	0.002
11	20537	1.0576421828	0.001996007984032
11	20578	1.06068486953	0.00199203187251
11	20619	1.060999196375	0.0019880715705766
11	20660	1.062231106499	0.001984126984127
11	20701	1.064380531278	0.001980198019802
11	20742	1.065270285875	0.0019762845849802
11	20783	1.06993593851	0.0019723865877712
11	20824	1.0728764049	0.0019685039370079
11	20865	1.073268263588	0.0019646365422397
11	20906	1.073983474805	0.0019607843137255
11	20947	1.074500681344	0.0019569471624267
11	20986	1.074543861505	0.001953125
11	21027	1.074812779221	0.0019493177387915
11	21068	1.075615515147	0.0019455252918288
11	21109	1.07688524792	0.0019417475728155
11	21150	1.080615897429	0.001937984496124
11	21191	1.082989002312	0.0019342359767892
11	21232	1.083319611404	0.0019305019305019
11	21273	1.083870317459	0.0019267822736031
11	21314	1.085013428166	0.0019230769230769
11	21355	1.085568974154	0.0019193857965452
11	21394	1.085774834783	0.0019157088122606
11	21433	1.085861936066	0.0019120458891013
11	21474	1.086871035922	0.0019083969465649
11	21515	1.087370073297	0.0019047619047619
11	21556	1.09416698203	0.0019011406844106
11	21606	1.095686948022	0.0018975332068312
11	21636	1.095715656098	0.0018939393939394
11	21677	1.096175738481	0.001890359168242
11	21716	1.096310415821	0.0018867924528302
11	21757	1.097093695023	0.0018832391713748
11	21798	1.105178514563	0.0018796992481203
11	21839	1.105678849822	0.00187617260788
11	21880	1.107179193997	0.00187265917603
11	21921	1.108579333288	0.0018691588785047
11	21962	1.111008652836	0.0018656716417911
11	22032	1.113401642656	0.0018621973929237
11	22073	1.115720790565	0.0037105751391465
11	22114	1.117623083592	0.0037037037037037
11	22155	1.11934664177	0.0036968576709797
11	22196	1.121930911326	0.003690036900369
11	22237	1.124264801226	0.003683241252302
11	22278	1.130941855923	0.0036764705882353
11	22319	1.13250954358	0.0036697247706422
11	22360	1.1354966512	0.0036630036630036
11	22401	1.137654097291	0.0036563071297989
11	22442	1.13887594037	0.0036496350364964
11	22492	1.139194870155	0.0036429872495446
11	22522	1.139222333345	0.0036363636363637
11	22563	1.13986355866	0.0036297640653358
11	22604	1.140988307494	0.0036231884057971
11	22645	1.14238419801	0.0036166365280289
11	22686	1.143945194789	0.0036101083032491
11	22727	1.1447117576	0.0036036036036036
11	22768	1.148046515683	0.0035971223021583
11	22809	1.154793735295	0.0035906642728905
11	22850	1.155543154156	0.003584229390681
11	22891	1.158440089114	0.0035778175313059
11	22932	1.162225499732	0.0035714285714286
11	22973	1.171510936035	0.0035650623885918
11	23014	1.171822324226	0.00355871886121
11	23055	1.173363115715	0.0035523978685613
11	23096	1.174086264614	0.0035460992907801
11	23137	1.174687394638	0.0035398230088496
11	23178	1.192348927248	0.0035335689045937
11	23219	1.194662260731	0.0035273368606702
11	23258	1.194754201569	0.0035211267605634
11	23299	1.195463984083	0.0035149384885764
11	23340	1.196500430979	0.0035087719298246
11	23381	1.202272491165	0.0035026269702276
11	23422	1.204246674529	0.0034965034965035
11	23463	1.205606769092	0.0034904013961605
11	23504	1.210390439346	0.0034843205574913
11	23545	1.212811612541	0.0034782608695653
11	23586	1.2157652075	0.0034722222222222
11	23627	1.216435832786	0.0034662045060658
11	23668	1.216937327525	0.0034602076124568
11	23709	1.220082564834	0.0034542314335061
11	23750	1.220841197568	0.003448275862069
11	23791	1.221474873168	0.0034423407917383
11	23832	1.2274412911	0.0034364261168385
11	23882	1.228169521071	0.0034305317324185
11	23912	1.228196081071	0.0034246575342466
11	23953	1.231299348371	0.0034188034188034
11	23994	1.238340006003	0.0034129692832765
11	24035	1.242042684834	0.0034071550255537
11	24076	1.243799903174	0.0034013605442177
11	24117	1.244575564985	0.0033955857385399
11	24158	1.244907065857	0.0033898305084745
11	24199	1.248456591532	0.0033840947546532
11	24240	1.249678114882	0.0033783783783784
11	24281	1.251878354669	0.0033726812816189
11	24322	1.253196340055	0.0033670033670034
11	24363	1.254069691404	0.0033613445378151
11	24404	1.259276892585	0.0033557046979866
11	24445	1.267458578229	0.0033500837520938
11	24486	1.267727258344	0.0033444816053512
11	24527	1.268244128904	0.003338898163606
11	24568	1.268658022771	0.0033333333333333
11	24609	1.273965679392	0.0033277870216306
11	24650	1.277146098442	0.0033222591362126
11	24691	1.278922779218	0.0033167495854063
11	24732	1.280710848715	0.0033112582781457
11	24773	1.283667061696	0.003305785123967
11	24814	1.284850904403	0.0033003300330033
11	24855	1.292603273775	0.0032948929159803
11	24894	1.292794359137	0.0032894736842105
11	24935	1.295738447695	0.0032840722495895
11	24976	1.298700780865	0.0032786885245901
11	25017	1.303832815349	0.0032733224222586
11	25058	1.309176551807	0.0032679738562091
11	25099	1.310527034237	0.0032626427406199
11	25140	1.311490674327	0.003257328990228
11	25181	1.312235500276	0.0032520325203252
11	25222	1.314301132209	0.0032467532467533
11	25263	1.315612998586	0.0032414910858996
11	25304	1.318564611738	0.0032362459546925
11	25345	1.322343352331	0.0032310177705978
11	25386	1.323180401955	0.0032258064516129
11	25427	1.323453184653	0.0032206119162641
11	25468	1.331147012109	0.0032154340836013
11	25509	1.337623459585	0.0032102728731942
11	25550	1.338996111961	0.0032051282051282
11	25591	1.340579256376	0.0032
11	25632	1.341317497072	0.0031948881789138
11	25673	1.342459858843	0.0031897926634769
11	25714	1.343371734669	0.0031847133757962
11	25753	1.343411510884	0.0031796502384738
11	25792	1.343491493691	0.0031746031746032
11	25833	1.34642901185	0.0031695721077655
11	25874	1.34741526839	0.0031645569620253
11	25915	1.351997079834	0.0031595576619273
11	25956	1.352543580515	0.0031545741324921
11	25997	1.352825730919	0.0031496062992126
11	26038	1.353134509001	0.0031446540880503
11	26077	1.353342476125	0.0031397174254317
11	26118	1.353947851298	0.0031347962382445
11	26159	1.354264867008	0.0031298904538342
11	26200	1.354661540532	0.003125
11	26241	1.364006660816	0.0031201248049922
11	26282	1.365795577096	0.0031152647975078
11	26323	1.369308128827	0.0031104199066874
11	26364	1.369625517431	0.0031055900621118
11	26405	1.37140730839	0.0031007751937985
11	26446	1.37453150804	0.0030959752321982
11	26485	1.374769580395	0.0030911901081917
11	26526	1.378524441877	0.0030864197530864
11	26567	1.381159040083	0.0030816640986132
11	26608	1.384775465902	0.0030769230769231
11	26678	1.39335022892	0.0030721966205837
11	26717	1.393439628925	0.0045941807044411
11	26758	1.395473857005	0.0045871559633027
11	26797	1.395649964089	0.0045801526717557
11	26838	1.396722679217	0.0045731707317073
11	26879	1.397961558053	0.0045662100456622
11	26920	1.401169992811	0.0045592705167173
11	26961	1.403458748925	0.0045523520485584
11	27002	1.403791086904	0.0045454545454545
11	27041	1.403834901208	0.0045385779122542
11	27082	1.410257492568	0.0045317220543807
11	27123	1.414054336588	0.004524886877828
11	27164	1.415272766838	0.0045180722891566
11	27203	1.415472680307	0.0045112781954887
11	27244	1.416495897876	0.0045045045045045
11	27285	1.420428503223	0.0044977511244377
11	27326	1.423377245393	0.0044910179640718
11	27367	1.43212271878	0.0044843049327354
11	27408	1.434028349689	0.0044776119402985
11	27447	1.434129792735	0.0044709388971684
11	27497	1.437655909313	0.0044642857142857
11	27527	1.437682469313	0.0044576523031203
11	27568	1.438548041872	0.0044510385756676
11	27607	1.438627701967	0.0044444444444445
11	27648	1.438938808571	0.0044378698224852
11	27689	1.439860021035	0.0044313146233382
11	27728	1.440092121927	0.004424778761062
11	27769	1.441457584021	0.0044182621502209
11	27810	1.444395818982	0.0044117647058823
11	27851	1.444970657742	0.0044052863436124
11	27892	1.446046206459	0.0043988269794721
11	27933	1.451615327175	0.0043923865300146
11	27974	1.452488941881	0.0043859649122807
11	28013	1.452737501156	0.0043795620437956
11	28054	1.453326953509	0.0043731778425656
11	28095	1.454219134061	0.0043668122270742
11	28145	1.459454289302	0.0043604651162791
11	28175	1.459480849302	0.0043541364296081
11	28216	1.464676346035	0.0043478260869565
11	28257	1.468455440633	0.0043415340086831
11	28298	1.469231764844	0.0043352601156069
11	28339	1.470343855541	0.0043290043290043
11	28380	1.471704627587	0.0043227665706052
11	28421	1.472036469977	0.00431654676259
11	28462	1.475635082325	0.0043103448275862
11	28503	1.476263767493	0.0043041606886657
11	28542	1.476490779196	0.004297994269341
11	28583	1.477638070051	0.0042918454935622
11	28633	1.478607973809	0.0042857142857143
11	28663	1.478637998069	0.0042796005706134
11	28704	1.48295192616	0.0042735042735043
11	28745	1.485343871923	0.0042674253200569
11	28786	1.48970693643	0.0042613636363636
11	28827	1.49021977112	0.0042553191489362
11	28868	1.492631943463	0.0042492917847026
11	28909	1.493224897998	0.0042432814710043
11	28950	1.494729595056	0.0042372881355932
11	28991	1.495385696467	0.004231311706629
11	29032	1.49651641022	0.0042253521126761
11	29073	1.497483419422	0.0042194092827004
11	29114	1.499053600074	0.0042134831460674

