version 3
run General-0-20241208-10:56:52-13196
attr configname General
attr datetime 20241208-10:56:52
attr datetimef 20241208-105652
attr experiment General
attr inifile D:/jobSimQt/project/Parameters.ini
attr iterationvars ""
attr iterationvarsd ""
attr iterationvarsf ""
attr measurement ""
attr network TargetNetwork
attr processid 13196
attr repetition 0
attr replication #0
attr resultdir results
attr runnumber 0
attr seedset 0
config network TargetNetwork
config sim-time-limit 1.5s
config **.statistic-recording false
config *.*.ethernet.typename EthernetLayer
config *.*.eth[*].typename LayeredEthernetInterface
config *.*.eth[*].bitrate 100Mbps
config **.eth[*].queue.typename DropTailQueue
config **.eth[*].queue.packetCapacity 100
config **.forwarding false
config **.arp.retryTimeout 1s
config **.arp.retryCount 3
config **.arp.cacheTimeout 100s
config **.tcp.tcpAlgorithmClass "\"TcpReno\""
config **.tcp.typename Tcp
config **.tcp.advertisedWindow 65535
config **.tcp.delayedAcksEnabled false
config **.tcp.nagleEnabled true
config **.tcp.limitedTransmitEnabled false
config **.tcp.increasedIWEnabled false
config **.tcp.sackSupport false
config **.tcp.windowScalingSupport false
config **.tcp.timestampSupport false
config **.tcp.mss 1452
config *.configurator.config "xml(\"<config>\\n\" + \"<interface hosts='udp_tcp' address='192.168.0.1' netmask='255.255.255.x'/>\\n\" + \"<interface hosts='udp_tcp2' address='192.168.0.2' netmask='255.255.255.x'/>\\n\" + \"<interface hosts='udp_tcp3' address='192.168.0.3' netmask='255.255.255.x'/>\\n\" + \"<interface hosts='udp_tcp4' address='192.168.0.4' netmask='255.255.255.x'/>\\n\" + \"<interface hosts='udp_tcp5' address='192.168.0.5' netmask='255.255.255.x'/>\\n\" + \"<interface hosts='udp_tcp6' address='192.168.0.6' netmask='255.255.255.x'/>\\n\" + \"<interface hosts='udp_tcp7' address='192.168.0.7' netmask='255.255.255.x'/>\\n\" + \"<interface hosts='udp_tcp8' address='192.168.0.8' netmask='255.255.255.x'/>\\n\" + \"<interface hosts='udp_tcp9' address='192.168.0.9' netmask='255.255.255.x'/>\\n\" + \"<interface hosts='udp_tcp10' address='192.168.0.10' netmask='255.255.255.x'/>\\n\" + \"<interface hosts='udp_tcp11' address='192.168.0.11' netmask='255.255.255.x'/>\\n\" + \"<interface hosts='udp_tcp12' address='192.168.0.12' netmask='255.255.255.x'/>\\n\" + \"<interface hosts='udp_tcp13' address='192.168.0.13' netmask='255.255.255.x'/>\\n\" + \"<interface hosts='udp_tcp14' address='192.168.0.14' netmask='255.255.255.x'/>\\n\" + \"<interface hosts='udp_tcp15' address='192.168.0.15' netmask='255.255.255.x'/>\\n\" + \"<interface hosts='udp_tcp16' address='192.168.0.16' netmask='255.255.255.x'/>\\n\" + \"<interface hosts='udp_tcp17' address='192.168.0.17' netmask='255.255.255.x'/>\\n\" + \"<interface hosts='udp_tcp18' address='192.168.0.18' netmask='255.255.255.x'/>\\n\" + \"<interface hosts='udp_tcp19' address='192.168.0.19' netmask='255.255.255.x'/>\\n\" + \"<interface hosts='udp_tcp20' address='192.168.0.20' netmask='255.255.255.x'/>\\n\" + \"<interface hosts='udp_tcp21' address='192.168.0.21' netmask='255.255.255.x'/>\\n\" + \"<interface hosts='udp_tcp22' address='192.168.0.22' netmask='255.255.255.x'/>\\n\" + \"<interface hosts='udp_tcp23' address='192.168.0.23' netmask='255.255.255.x'/>\\n\" + \"<interface hosts='udp_tcp24' address='192.168.0.24' netmask='255.255.255.x'/>\\n\" + \"<interface hosts='udp_tcp25' address='192.168.0.25' netmask='255.255.255.x'/>\\n\" + \"<interface hosts='udp_tcp26' address='192.168.0.26' netmask='255.255.255.x'/>\\n\" + \"<interface hosts='udp_tcp27' address='192.168.0.27' netmask='255.255.255.x'/>\\n\" + \"<interface hosts='udp_tcp28' address='192.168.0.28' netmask='255.255.255.x'/>\\n\" + \"<interface hosts='udp_tcp29' address='192.168.0.29' netmask='255.255.255.x'/>\\n\" + \"<interface hosts='udp_tcp30' address='192.168.0.30' netmask='255.255.255.x'/>\\n\" + \"<interface hosts='udp_tcp31' address='192.168.0.31' netmask='255.255.255.x'/>\\n\" + \"<interface hosts='udp_tcp32' address='192.168.0.32' netmask='255.255.255.x'/>\\n\" + \"<interface hosts='udp_tcp33' address='192.168.0.33' netmask='255.255.255.x'/>\\n\" + \"<interface hosts='udp_tcp34' address='192.168.0.34' netmask='255.255.255.x'/>\\n\" + \"<interface hosts='udp_tcp35' address='192.168.0.35' netmask='255.255.255.x'/>\\n\" + \"<interface hosts='udp_tcp36' address='192.168.0.36' netmask='255.255.255.x'/>\\n\" + \"<interface hosts='udp_tcp37' address='192.168.0.37' netmask='255.255.255.x'/>\\n\" + \"<interface hosts='udp_tcp38' address='192.168.0.38' netmask='255.255.255.x'/>\\n\" + \"<interface hosts='udp_tcp39' address='192.168.0.39' netmask='255.255.255.x'/>\\n\" + \"<interface hosts='udp_tcp40' address='192.168.0.40' netmask='255.255.255.x'/>\\n\" + \"</config>\")"
config *.udp_tcp.numApps 1
config *.udp_tcp.app[0].typename UdpApp615
config *.udp_tcp.app[0].source.packetLength 1000B
config *.udp_tcp.app[0].source.productionInterval exponential(10ms)
config *.udp_tcp.app[0].io.destAddress "\"udp_tcp2\""
config *.udp_tcp.app[0].io.destPort 1000
config *.udp_tcp.app[0].sink.typename ""
config *.udp_tcp2.numApps 1
config *.udp_tcp2.app[0].typename UdpApp615
config *.udp_tcp2.app[0].source.typename ""
config *.udp_tcp2.app[0].io.destPort -1
config *.udp_tcp2.app[0].io.localPort 1000
config *.udp_tcp2.app[0].sink.flowName "\"default2\""
config *.udp_tcp3.numApps 0
config *.udp_tcp4.numApps 0
config *.udp_tcp5.numApps 0
config *.udp_tcp6.numApps 0
config *.udp_tcp7.numApps 0
config *.udp_tcp8.numApps 0
config *.udp_tcp9.numApps 1
config *.udp_tcp9.app[0].typename UdpApp615
config *.udp_tcp9.app[0].source.packetLength 1000B
config *.udp_tcp9.app[0].source.productionInterval exponential(10ms)
config *.udp_tcp9.app[0].io.destAddress "\"udp_tcp10\""
config *.udp_tcp9.app[0].io.destPort 1000
config *.udp_tcp9.app[0].sink.typename ""
config *.udp_tcp10.numApps 1
config *.udp_tcp10.app[0].typename UdpApp615
config *.udp_tcp10.app[0].source.typename ""
config *.udp_tcp10.app[0].io.destPort -1
config *.udp_tcp10.app[0].io.localPort 1000
config *.udp_tcp10.app[0].sink.flowName "\"default10\""
config *.udp_tcp11.numApps 0
config *.udp_tcp12.numApps 0
config *.udp_tcp13.numApps 0
config *.udp_tcp14.numApps 0
config *.udp_tcp15.numApps 0
config *.udp_tcp16.numApps 0
config *.udp_tcp17.numApps 1
config *.udp_tcp17.app[0].typename UdpApp615
config *.udp_tcp17.app[0].source.packetLength 1000B
config *.udp_tcp17.app[0].source.productionInterval exponential(10ms)
config *.udp_tcp17.app[0].io.destAddress "\"udp_tcp18\""
config *.udp_tcp17.app[0].io.destPort 1000
config *.udp_tcp17.app[0].sink.typename ""
config *.udp_tcp18.numApps 1
config *.udp_tcp18.app[0].typename UdpApp615
config *.udp_tcp18.app[0].source.typename ""
config *.udp_tcp18.app[0].io.destPort -1
config *.udp_tcp18.app[0].io.localPort 1000
config *.udp_tcp18.app[0].sink.flowName "\"default18\""
config *.udp_tcp19.numApps 0
config *.udp_tcp20.numApps 0
config *.udp_tcp21.numApps 0
config *.udp_tcp22.numApps 0
config *.udp_tcp23.numApps 0
config *.udp_tcp24.numApps 0
config *.udp_tcp25.numApps 0
config *.udp_tcp26.numApps 0
config *.udp_tcp27.numApps 0
config *.udp_tcp28.numApps 0
config *.udp_tcp29.numApps 1
config *.udp_tcp29.app[0].typename UdpApp615
config *.udp_tcp29.app[0].source.packetLength 1000B
config *.udp_tcp29.app[0].source.productionInterval exponential(10ms)
config *.udp_tcp29.app[0].io.destAddress "\"udp_tcp30\""
config *.udp_tcp29.app[0].io.destPort 1000
config *.udp_tcp29.app[0].sink.typename ""
config *.udp_tcp30.numApps 1
config *.udp_tcp30.app[0].typename UdpApp615
config *.udp_tcp30.app[0].source.typename ""
config *.udp_tcp30.app[0].io.destPort -1
config *.udp_tcp30.app[0].io.localPort 1000
config *.udp_tcp30.app[0].sink.flowName "\"default30\""
config *.udp_tcp31.numApps 0
config *.udp_tcp32.numApps 0
config *.udp_tcp33.numApps 1
config *.udp_tcp33.app[0].typename UdpApp615
config *.udp_tcp33.app[0].source.packetLength 1000B
config *.udp_tcp33.app[0].source.productionInterval exponential(10ms)
config *.udp_tcp33.app[0].io.destAddress "\"udp_tcp34\""
config *.udp_tcp33.app[0].io.destPort 1000
config *.udp_tcp33.app[0].sink.typename ""
config *.udp_tcp34.numApps 1
config *.udp_tcp34.app[0].typename UdpApp615
config *.udp_tcp34.app[0].source.typename ""
config *.udp_tcp34.app[0].io.destPort -1
config *.udp_tcp34.app[0].io.localPort 1000
config *.udp_tcp34.app[0].sink.flowName "\"default34\""
config *.udp_tcp35.numApps 0
config *.udp_tcp36.numApps 0
config *.udp_tcp37.numApps 0
config *.udp_tcp38.numApps 0
config *.udp_tcp39.numApps 0
config *.udp_tcp40.numApps 0
config *.switch.eth[*].bitrate 100Mbps
config *.switch2.eth[*].bitrate 100Mbps
config *.switch3.eth[*].bitrate 100Mbps
config *.switch4.eth[*].bitrate 100Mbps
config *.switch5.eth[*].bitrate 100Mbps

par TargetNetwork.udp_tcp.ethg$o[0].channel typename "\"ned.DatarateChannel\""
par TargetNetwork.udp_tcp.ethg$o[0].channel disabled false
attr mutable ""
par TargetNetwork.udp_tcp.ethg$o[0].channel delay 0s
attr mutable ""
attr unit s
par TargetNetwork.udp_tcp.ethg$o[0].channel datarate 1e+08bps
attr mutable ""
attr unit bps
par TargetNetwork.udp_tcp.ethg$o[0].channel ber 0
attr mutable ""
par TargetNetwork.udp_tcp.ethg$o[0].channel per 0
attr mutable ""
par TargetNetwork.switch.ethg$o[0].channel typename "\"ned.DatarateChannel\""
par TargetNetwork.switch.ethg$o[0].channel disabled false
attr mutable ""
par TargetNetwork.switch.ethg$o[0].channel delay 0s
attr mutable ""
attr unit s
par TargetNetwork.switch.ethg$o[0].channel datarate 1e+08bps
attr mutable ""
attr unit bps
par TargetNetwork.switch.ethg$o[0].channel ber 0
attr mutable ""
par TargetNetwork.switch.ethg$o[0].channel per 0
attr mutable ""
par TargetNetwork.udp_tcp2.ethg$o[0].channel typename "\"ned.DatarateChannel\""
par TargetNetwork.udp_tcp2.ethg$o[0].channel disabled false
attr mutable ""
par TargetNetwork.udp_tcp2.ethg$o[0].channel delay 0s
attr mutable ""
attr unit s
par TargetNetwork.udp_tcp2.ethg$o[0].channel datarate 1e+08bps
attr mutable ""
attr unit bps
par TargetNetwork.udp_tcp2.ethg$o[0].channel ber 0
attr mutable ""
par TargetNetwork.udp_tcp2.ethg$o[0].channel per 0
attr mutable ""
par TargetNetwork.switch.ethg$o[1].channel typename "\"ned.DatarateChannel\""
par TargetNetwork.switch.ethg$o[1].channel disabled false
attr mutable ""
par TargetNetwork.switch.ethg$o[1].channel delay 0s
attr mutable ""
attr unit s
par TargetNetwork.switch.ethg$o[1].channel datarate 1e+08bps
attr mutable ""
attr unit bps
par TargetNetwork.switch.ethg$o[1].channel ber 0
attr mutable ""
par TargetNetwork.switch.ethg$o[1].channel per 0
attr mutable ""
par TargetNetwork.udp_tcp3.ethg$o[0].channel typename "\"ned.DatarateChannel\""
par TargetNetwork.udp_tcp3.ethg$o[0].channel disabled false
attr mutable ""
par TargetNetwork.udp_tcp3.ethg$o[0].channel delay 0s
attr mutable ""
attr unit s
par TargetNetwork.udp_tcp3.ethg$o[0].channel datarate 1e+08bps
attr mutable ""
attr unit bps
par TargetNetwork.udp_tcp3.ethg$o[0].channel ber 0
attr mutable ""
par TargetNetwork.udp_tcp3.ethg$o[0].channel per 0
attr mutable ""
par TargetNetwork.switch.ethg$o[2].channel typename "\"ned.DatarateChannel\""
par TargetNetwork.switch.ethg$o[2].channel disabled false
attr mutable ""
par TargetNetwork.switch.ethg$o[2].channel delay 0s
attr mutable ""
attr unit s
par TargetNetwork.switch.ethg$o[2].channel datarate 1e+08bps
attr mutable ""
attr unit bps
par TargetNetwork.switch.ethg$o[2].channel ber 0
attr mutable ""
par TargetNetwork.switch.ethg$o[2].channel per 0
attr mutable ""
par TargetNetwork.udp_tcp4.ethg$o[0].channel typename "\"ned.DatarateChannel\""
par TargetNetwork.udp_tcp4.ethg$o[0].channel disabled false
attr mutable ""
par TargetNetwork.udp_tcp4.ethg$o[0].channel delay 0s
attr mutable ""
attr unit s
par TargetNetwork.udp_tcp4.ethg$o[0].channel datarate 1e+08bps
attr mutable ""
attr unit bps
par TargetNetwork.udp_tcp4.ethg$o[0].channel ber 0
attr mutable ""
par TargetNetwork.udp_tcp4.ethg$o[0].channel per 0
attr mutable ""
par TargetNetwork.switch.ethg$o[3].channel typename "\"ned.DatarateChannel\""
par TargetNetwork.switch.ethg$o[3].channel disabled false
attr mutable ""
par TargetNetwork.switch.ethg$o[3].channel delay 0s
attr mutable ""
attr unit s
par TargetNetwork.switch.ethg$o[3].channel datarate 1e+08bps
attr mutable ""
attr unit bps
par TargetNetwork.switch.ethg$o[3].channel ber 0
attr mutable ""
par TargetNetwork.switch.ethg$o[3].channel per 0
attr mutable ""
par TargetNetwork.udp_tcp5.ethg$o[0].channel typename "\"ned.DatarateChannel\""
par TargetNetwork.udp_tcp5.ethg$o[0].channel disabled false
attr mutable ""
par TargetNetwork.udp_tcp5.ethg$o[0].channel delay 0s
attr mutable ""
attr unit s
par TargetNetwork.udp_tcp5.ethg$o[0].channel datarate 1e+08bps
attr mutable ""
attr unit bps
par TargetNetwork.udp_tcp5.ethg$o[0].channel ber 0
attr mutable ""
par TargetNetwork.udp_tcp5.ethg$o[0].channel per 0
attr mutable ""
par TargetNetwork.switch.ethg$o[4].channel typename "\"ned.DatarateChannel\""
par TargetNetwork.switch.ethg$o[4].channel disabled false
attr mutable ""
par TargetNetwork.switch.ethg$o[4].channel delay 0s
attr mutable ""
attr unit s
par TargetNetwork.switch.ethg$o[4].channel datarate 1e+08bps
attr mutable ""
attr unit bps
par TargetNetwork.switch.ethg$o[4].channel ber 0
attr mutable ""
par TargetNetwork.switch.ethg$o[4].channel per 0
attr mutable ""
par TargetNetwork.udp_tcp6.ethg$o[0].channel typename "\"ned.DatarateChannel\""
par TargetNetwork.udp_tcp6.ethg$o[0].channel disabled false
attr mutable ""
par TargetNetwork.udp_tcp6.ethg$o[0].channel delay 0s
attr mutable ""
attr unit s
par TargetNetwork.udp_tcp6.ethg$o[0].channel datarate 1e+08bps
attr mutable ""
attr unit bps
par TargetNetwork.udp_tcp6.ethg$o[0].channel ber 0
attr mutable ""
par TargetNetwork.udp_tcp6.ethg$o[0].channel per 0
attr mutable ""
par TargetNetwork.switch.ethg$o[5].channel typename "\"ned.DatarateChannel\""
par TargetNetwork.switch.ethg$o[5].channel disabled false
attr mutable ""
par TargetNetwork.switch.ethg$o[5].channel delay 0s
attr mutable ""
attr unit s
par TargetNetwork.switch.ethg$o[5].channel datarate 1e+08bps
attr mutable ""
attr unit bps
par TargetNetwork.switch.ethg$o[5].channel ber 0
attr mutable ""
par TargetNetwork.switch.ethg$o[5].channel per 0
attr mutable ""
par TargetNetwork.udp_tcp7.ethg$o[0].channel typename "\"ned.DatarateChannel\""
par TargetNetwork.udp_tcp7.ethg$o[0].channel disabled false
attr mutable ""
par TargetNetwork.udp_tcp7.ethg$o[0].channel delay 0s
attr mutable ""
attr unit s
par TargetNetwork.udp_tcp7.ethg$o[0].channel datarate 1e+08bps
attr mutable ""
attr unit bps
par TargetNetwork.udp_tcp7.ethg$o[0].channel ber 0
attr mutable ""
par TargetNetwork.udp_tcp7.ethg$o[0].channel per 0
attr mutable ""
par TargetNetwork.switch.ethg$o[6].channel typename "\"ned.DatarateChannel\""
par TargetNetwork.switch.ethg$o[6].channel disabled false
attr mutable ""
par TargetNetwork.switch.ethg$o[6].channel delay 0s
attr mutable ""
attr unit s
par TargetNetwork.switch.ethg$o[6].channel datarate 1e+08bps
attr mutable ""
attr unit bps
par TargetNetwork.switch.ethg$o[6].channel ber 0
attr mutable ""
par TargetNetwork.switch.ethg$o[6].channel per 0
attr mutable ""
par TargetNetwork.udp_tcp8.ethg$o[0].channel typename "\"ned.DatarateChannel\""
par TargetNetwork.udp_tcp8.ethg$o[0].channel disabled false
attr mutable ""
par TargetNetwork.udp_tcp8.ethg$o[0].channel delay 0s
attr mutable ""
attr unit s
par TargetNetwork.udp_tcp8.ethg$o[0].channel datarate 1e+08bps
attr mutable ""
attr unit bps
par TargetNetwork.udp_tcp8.ethg$o[0].channel ber 0
attr mutable ""
par TargetNetwork.udp_tcp8.ethg$o[0].channel per 0
attr mutable ""
par TargetNetwork.switch.ethg$o[7].channel typename "\"ned.DatarateChannel\""
par TargetNetwork.switch.ethg$o[7].channel disabled false
attr mutable ""
par TargetNetwork.switch.ethg$o[7].channel delay 0s
attr mutable ""
attr unit s
par TargetNetwork.switch.ethg$o[7].channel datarate 1e+08bps
attr mutable ""
attr unit bps
par TargetNetwork.switch.ethg$o[7].channel ber 0
attr mutable ""
par TargetNetwork.switch.ethg$o[7].channel per 0
attr mutable ""
par TargetNetwork.udp_tcp9.ethg$o[0].channel typename "\"ned.DatarateChannel\""
par TargetNetwork.udp_tcp9.ethg$o[0].channel disabled false
attr mutable ""
par TargetNetwork.udp_tcp9.ethg$o[0].channel delay 0s
attr mutable ""
attr unit s
par TargetNetwork.udp_tcp9.ethg$o[0].channel datarate 1e+08bps
attr mutable ""
attr unit bps
par TargetNetwork.udp_tcp9.ethg$o[0].channel ber 0
attr mutable ""
par TargetNetwork.udp_tcp9.ethg$o[0].channel per 0
attr mutable ""
par TargetNetwork.switch2.ethg$o[0].channel typename "\"ned.DatarateChannel\""
par TargetNetwork.switch2.ethg$o[0].channel disabled false
attr mutable ""
par TargetNetwork.switch2.ethg$o[0].channel delay 0s
attr mutable ""
attr unit s
par TargetNetwork.switch2.ethg$o[0].channel datarate 1e+08bps
attr mutable ""
attr unit bps
par TargetNetwork.switch2.ethg$o[0].channel ber 0
attr mutable ""
par TargetNetwork.switch2.ethg$o[0].channel per 0
attr mutable ""
par TargetNetwork.udp_tcp10.ethg$o[0].channel typename "\"ned.DatarateChannel\""
par TargetNetwork.udp_tcp10.ethg$o[0].channel disabled false
attr mutable ""
par TargetNetwork.udp_tcp10.ethg$o[0].channel delay 0s
attr mutable ""
attr unit s
par TargetNetwork.udp_tcp10.ethg$o[0].channel datarate 1e+08bps
attr mutable ""
attr unit bps
par TargetNetwork.udp_tcp10.ethg$o[0].channel ber 0
attr mutable ""
par TargetNetwork.udp_tcp10.ethg$o[0].channel per 0
attr mutable ""
par TargetNetwork.switch2.ethg$o[1].channel typename "\"ned.DatarateChannel\""
par TargetNetwork.switch2.ethg$o[1].channel disabled false
attr mutable ""
par TargetNetwork.switch2.ethg$o[1].channel delay 0s
attr mutable ""
attr unit s
par TargetNetwork.switch2.ethg$o[1].channel datarate 1e+08bps
attr mutable ""
attr unit bps
par TargetNetwork.switch2.ethg$o[1].channel ber 0
attr mutable ""
par TargetNetwork.switch2.ethg$o[1].channel per 0
attr mutable ""
par TargetNetwork.udp_tcp11.ethg$o[0].channel typename "\"ned.DatarateChannel\""
par TargetNetwork.udp_tcp11.ethg$o[0].channel disabled false
attr mutable ""
par TargetNetwork.udp_tcp11.ethg$o[0].channel delay 0s
attr mutable ""
attr unit s
par TargetNetwork.udp_tcp11.ethg$o[0].channel datarate 1e+08bps
attr mutable ""
attr unit bps
par TargetNetwork.udp_tcp11.ethg$o[0].channel ber 0
attr mutable ""
par TargetNetwork.udp_tcp11.ethg$o[0].channel per 0
attr mutable ""
par TargetNetwork.switch2.ethg$o[2].channel typename "\"ned.DatarateChannel\""
par TargetNetwork.switch2.ethg$o[2].channel disabled false
attr mutable ""
par TargetNetwork.switch2.ethg$o[2].channel delay 0s
attr mutable ""
attr unit s
par TargetNetwork.switch2.ethg$o[2].channel datarate 1e+08bps
attr mutable ""
attr unit bps
par TargetNetwork.switch2.ethg$o[2].channel ber 0
attr mutable ""
par TargetNetwork.switch2.ethg$o[2].channel per 0
attr mutable ""
par TargetNetwork.udp_tcp12.ethg$o[0].channel typename "\"ned.DatarateChannel\""
par TargetNetwork.udp_tcp12.ethg$o[0].channel disabled false
attr mutable ""
par TargetNetwork.udp_tcp12.ethg$o[0].channel delay 0s
attr mutable ""
attr unit s
par TargetNetwork.udp_tcp12.ethg$o[0].channel datarate 1e+08bps
attr mutable ""
attr unit bps
par TargetNetwork.udp_tcp12.ethg$o[0].channel ber 0
attr mutable ""
par TargetNetwork.udp_tcp12.ethg$o[0].channel per 0
attr mutable ""
par TargetNetwork.switch2.ethg$o[3].channel typename "\"ned.DatarateChannel\""
par TargetNetwork.switch2.ethg$o[3].channel disabled false
attr mutable ""
par TargetNetwork.switch2.ethg$o[3].channel delay 0s
attr mutable ""
attr unit s
par TargetNetwork.switch2.ethg$o[3].channel datarate 1e+08bps
attr mutable ""
attr unit bps
par TargetNetwork.switch2.ethg$o[3].channel ber 0
attr mutable ""
par TargetNetwork.switch2.ethg$o[3].channel per 0
attr mutable ""
par TargetNetwork.udp_tcp13.ethg$o[0].channel typename "\"ned.DatarateChannel\""
par TargetNetwork.udp_tcp13.ethg$o[0].channel disabled false
attr mutable ""
par TargetNetwork.udp_tcp13.ethg$o[0].channel delay 0s
attr mutable ""
attr unit s
par TargetNetwork.udp_tcp13.ethg$o[0].channel datarate 1e+08bps
attr mutable ""
attr unit bps
par TargetNetwork.udp_tcp13.ethg$o[0].channel ber 0
attr mutable ""
par TargetNetwork.udp_tcp13.ethg$o[0].channel per 0
attr mutable ""
par TargetNetwork.switch2.ethg$o[4].channel typename "\"ned.DatarateChannel\""
par TargetNetwork.switch2.ethg$o[4].channel disabled false
attr mutable ""
par TargetNetwork.switch2.ethg$o[4].channel delay 0s
attr mutable ""
attr unit s
par TargetNetwork.switch2.ethg$o[4].channel datarate 1e+08bps
attr mutable ""
attr unit bps
par TargetNetwork.switch2.ethg$o[4].channel ber 0
attr mutable ""
par TargetNetwork.switch2.ethg$o[4].channel per 0
attr mutable ""
par TargetNetwork.udp_tcp14.ethg$o[0].channel typename "\"ned.DatarateChannel\""
par TargetNetwork.udp_tcp14.ethg$o[0].channel disabled false
attr mutable ""
par TargetNetwork.udp_tcp14.ethg$o[0].channel delay 0s
attr mutable ""
attr unit s
par TargetNetwork.udp_tcp14.ethg$o[0].channel datarate 1e+08bps
attr mutable ""
attr unit bps
par TargetNetwork.udp_tcp14.ethg$o[0].channel ber 0
attr mutable ""
par TargetNetwork.udp_tcp14.ethg$o[0].channel per 0
attr mutable ""
par TargetNetwork.switch2.ethg$o[5].channel typename "\"ned.DatarateChannel\""
par TargetNetwork.switch2.ethg$o[5].channel disabled false
attr mutable ""
par TargetNetwork.switch2.ethg$o[5].channel delay 0s
attr mutable ""
attr unit s
par TargetNetwork.switch2.ethg$o[5].channel datarate 1e+08bps
attr mutable ""
attr unit bps
par TargetNetwork.switch2.ethg$o[5].channel ber 0
attr mutable ""
par TargetNetwork.switch2.ethg$o[5].channel per 0
attr mutable ""
par TargetNetwork.udp_tcp15.ethg$o[0].channel typename "\"ned.DatarateChannel\""
par TargetNetwork.udp_tcp15.ethg$o[0].channel disabled false
attr mutable ""
par TargetNetwork.udp_tcp15.ethg$o[0].channel delay 0s
attr mutable ""
attr unit s
par TargetNetwork.udp_tcp15.ethg$o[0].channel datarate 1e+08bps
attr mutable ""
attr unit bps
par TargetNetwork.udp_tcp15.ethg$o[0].channel ber 0
attr mutable ""
par TargetNetwork.udp_tcp15.ethg$o[0].channel per 0
attr mutable ""
par TargetNetwork.switch2.ethg$o[6].channel typename "\"ned.DatarateChannel\""
par TargetNetwork.switch2.ethg$o[6].channel disabled false
attr mutable ""
par TargetNetwork.switch2.ethg$o[6].channel delay 0s
attr mutable ""
attr unit s
par TargetNetwork.switch2.ethg$o[6].channel datarate 1e+08bps
attr mutable ""
attr unit bps
par TargetNetwork.switch2.ethg$o[6].channel ber 0
attr mutable ""
par TargetNetwork.switch2.ethg$o[6].channel per 0
attr mutable ""
par TargetNetwork.udp_tcp16.ethg$o[0].channel typename "\"ned.DatarateChannel\""
par TargetNetwork.udp_tcp16.ethg$o[0].channel disabled false
attr mutable ""
par TargetNetwork.udp_tcp16.ethg$o[0].channel delay 0s
attr mutable ""
attr unit s
par TargetNetwork.udp_tcp16.ethg$o[0].channel datarate 1e+08bps
attr mutable ""
attr unit bps
par TargetNetwork.udp_tcp16.ethg$o[0].channel ber 0
attr mutable ""
par TargetNetwork.udp_tcp16.ethg$o[0].channel per 0
attr mutable ""
par TargetNetwork.switch2.ethg$o[7].channel typename "\"ned.DatarateChannel\""
par TargetNetwork.switch2.ethg$o[7].channel disabled false
attr mutable ""
par TargetNetwork.switch2.ethg$o[7].channel delay 0s
attr mutable ""
attr unit s
par TargetNetwork.switch2.ethg$o[7].channel datarate 1e+08bps
attr mutable ""
attr unit bps
par TargetNetwork.switch2.ethg$o[7].channel ber 0
attr mutable ""
par TargetNetwork.switch2.ethg$o[7].channel per 0
attr mutable ""
par TargetNetwork.udp_tcp17.ethg$o[0].channel typename "\"ned.DatarateChannel\""
par TargetNetwork.udp_tcp17.ethg$o[0].channel disabled false
attr mutable ""
par TargetNetwork.udp_tcp17.ethg$o[0].channel delay 0s
attr mutable ""
attr unit s
par TargetNetwork.udp_tcp17.ethg$o[0].channel datarate 1e+08bps
attr mutable ""
attr unit bps
par TargetNetwork.udp_tcp17.ethg$o[0].channel ber 0
attr mutable ""
par TargetNetwork.udp_tcp17.ethg$o[0].channel per 0
attr mutable ""
par TargetNetwork.switch3.ethg$o[0].channel typename "\"ned.DatarateChannel\""
par TargetNetwork.switch3.ethg$o[0].channel disabled false
attr mutable ""
par TargetNetwork.switch3.ethg$o[0].channel delay 0s
attr mutable ""
attr unit s
par TargetNetwork.switch3.ethg$o[0].channel datarate 1e+08bps
attr mutable ""
attr unit bps
par TargetNetwork.switch3.ethg$o[0].channel ber 0
attr mutable ""
par TargetNetwork.switch3.ethg$o[0].channel per 0
attr mutable ""
par TargetNetwork.udp_tcp18.ethg$o[0].channel typename "\"ned.DatarateChannel\""
par TargetNetwork.udp_tcp18.ethg$o[0].channel disabled false
attr mutable ""
par TargetNetwork.udp_tcp18.ethg$o[0].channel delay 0s
attr mutable ""
attr unit s
par TargetNetwork.udp_tcp18.ethg$o[0].channel datarate 1e+08bps
attr mutable ""
attr unit bps
par TargetNetwork.udp_tcp18.ethg$o[0].channel ber 0
attr mutable ""
par TargetNetwork.udp_tcp18.ethg$o[0].channel per 0
attr mutable ""
par TargetNetwork.switch3.ethg$o[1].channel typename "\"ned.DatarateChannel\""
par TargetNetwork.switch3.ethg$o[1].channel disabled false
attr mutable ""
par TargetNetwork.switch3.ethg$o[1].channel delay 0s
attr mutable ""
attr unit s
par TargetNetwork.switch3.ethg$o[1].channel datarate 1e+08bps
attr mutable ""
attr unit bps
par TargetNetwork.switch3.ethg$o[1].channel ber 0
attr mutable ""
par TargetNetwork.switch3.ethg$o[1].channel per 0
attr mutable ""
par TargetNetwork.udp_tcp19.ethg$o[0].channel typename "\"ned.DatarateChannel\""
par TargetNetwork.udp_tcp19.ethg$o[0].channel disabled false
attr mutable ""
par TargetNetwork.udp_tcp19.ethg$o[0].channel delay 0s
attr mutable ""
attr unit s
par TargetNetwork.udp_tcp19.ethg$o[0].channel datarate 1e+08bps
attr mutable ""
attr unit bps
par TargetNetwork.udp_tcp19.ethg$o[0].channel ber 0
attr mutable ""
par TargetNetwork.udp_tcp19.ethg$o[0].channel per 0
attr mutable ""
par TargetNetwork.switch3.ethg$o[2].channel typename "\"ned.DatarateChannel\""
par TargetNetwork.switch3.ethg$o[2].channel disabled false
attr mutable ""
par TargetNetwork.switch3.ethg$o[2].channel delay 0s
attr mutable ""
attr unit s
par TargetNetwork.switch3.ethg$o[2].channel datarate 1e+08bps
attr mutable ""
attr unit bps
par TargetNetwork.switch3.ethg$o[2].channel ber 0
attr mutable ""
par TargetNetwork.switch3.ethg$o[2].channel per 0
attr mutable ""
par TargetNetwork.udp_tcp20.ethg$o[0].channel typename "\"ned.DatarateChannel\""
par TargetNetwork.udp_tcp20.ethg$o[0].channel disabled false
attr mutable ""
par TargetNetwork.udp_tcp20.ethg$o[0].channel delay 0s
attr mutable ""
attr unit s
par TargetNetwork.udp_tcp20.ethg$o[0].channel datarate 1e+08bps
attr mutable ""
attr unit bps
par TargetNetwork.udp_tcp20.ethg$o[0].channel ber 0
attr mutable ""
par TargetNetwork.udp_tcp20.ethg$o[0].channel per 0
attr mutable ""
par TargetNetwork.switch3.ethg$o[3].channel typename "\"ned.DatarateChannel\""
par TargetNetwork.switch3.ethg$o[3].channel disabled false
attr mutable ""
par TargetNetwork.switch3.ethg$o[3].channel delay 0s
attr mutable ""
attr unit s
par TargetNetwork.switch3.ethg$o[3].channel datarate 1e+08bps
attr mutable ""
attr unit bps
par TargetNetwork.switch3.ethg$o[3].channel ber 0
attr mutable ""
par TargetNetwork.switch3.ethg$o[3].channel per 0
attr mutable ""
par TargetNetwork.udp_tcp22.ethg$o[0].channel typename "\"ned.DatarateChannel\""
par TargetNetwork.udp_tcp22.ethg$o[0].channel disabled false
attr mutable ""
par TargetNetwork.udp_tcp22.ethg$o[0].channel delay 0s
attr mutable ""
attr unit s
par TargetNetwork.udp_tcp22.ethg$o[0].channel datarate 1e+08bps
attr mutable ""
attr unit bps
par TargetNetwork.udp_tcp22.ethg$o[0].channel ber 0
attr mutable ""
par TargetNetwork.udp_tcp22.ethg$o[0].channel per 0
attr mutable ""
par TargetNetwork.switch3.ethg$o[4].channel typename "\"ned.DatarateChannel\""
par TargetNetwork.switch3.ethg$o[4].channel disabled false
attr mutable ""
par TargetNetwork.switch3.ethg$o[4].channel delay 0s
attr mutable ""
attr unit s
par TargetNetwork.switch3.ethg$o[4].channel datarate 1e+08bps
attr mutable ""
attr unit bps
par TargetNetwork.switch3.ethg$o[4].channel ber 0
attr mutable ""
par TargetNetwork.switch3.ethg$o[4].channel per 0
attr mutable ""
par TargetNetwork.udp_tcp21.ethg$o[0].channel typename "\"ned.DatarateChannel\""
par TargetNetwork.udp_tcp21.ethg$o[0].channel disabled false
attr mutable ""
par TargetNetwork.udp_tcp21.ethg$o[0].channel delay 0s
attr mutable ""
attr unit s
par TargetNetwork.udp_tcp21.ethg$o[0].channel datarate 1e+08bps
attr mutable ""
attr unit bps
par TargetNetwork.udp_tcp21.ethg$o[0].channel ber 0
attr mutable ""
par TargetNetwork.udp_tcp21.ethg$o[0].channel per 0
attr mutable ""
par TargetNetwork.switch3.ethg$o[5].channel typename "\"ned.DatarateChannel\""
par TargetNetwork.switch3.ethg$o[5].channel disabled false
attr mutable ""
par TargetNetwork.switch3.ethg$o[5].channel delay 0s
attr mutable ""
attr unit s
par TargetNetwork.switch3.ethg$o[5].channel datarate 1e+08bps
attr mutable ""
attr unit bps
par TargetNetwork.switch3.ethg$o[5].channel ber 0
attr mutable ""
par TargetNetwork.switch3.ethg$o[5].channel per 0
attr mutable ""
par TargetNetwork.udp_tcp23.ethg$o[0].channel typename "\"ned.DatarateChannel\""
par TargetNetwork.udp_tcp23.ethg$o[0].channel disabled false
attr mutable ""
par TargetNetwork.udp_tcp23.ethg$o[0].channel delay 0s
attr mutable ""
attr unit s
par TargetNetwork.udp_tcp23.ethg$o[0].channel datarate 1e+08bps
attr mutable ""
attr unit bps
par TargetNetwork.udp_tcp23.ethg$o[0].channel ber 0
attr mutable ""
par TargetNetwork.udp_tcp23.ethg$o[0].channel per 0
attr mutable ""
par TargetNetwork.switch3.ethg$o[6].channel typename "\"ned.DatarateChannel\""
par TargetNetwork.switch3.ethg$o[6].channel disabled false
attr mutable ""
par TargetNetwork.switch3.ethg$o[6].channel delay 0s
attr mutable ""
attr unit s
par TargetNetwork.switch3.ethg$o[6].channel datarate 1e+08bps
attr mutable ""
attr unit bps
par TargetNetwork.switch3.ethg$o[6].channel ber 0
attr mutable ""
par TargetNetwork.switch3.ethg$o[6].channel per 0
attr mutable ""
par TargetNetwork.udp_tcp24.ethg$o[0].channel typename "\"ned.DatarateChannel\""
par TargetNetwork.udp_tcp24.ethg$o[0].channel disabled false
attr mutable ""
par TargetNetwork.udp_tcp24.ethg$o[0].channel delay 0s
attr mutable ""
attr unit s
par TargetNetwork.udp_tcp24.ethg$o[0].channel datarate 1e+08bps
attr mutable ""
attr unit bps
par TargetNetwork.udp_tcp24.ethg$o[0].channel ber 0
attr mutable ""
par TargetNetwork.udp_tcp24.ethg$o[0].channel per 0
attr mutable ""
par TargetNetwork.switch3.ethg$o[7].channel typename "\"ned.DatarateChannel\""
par TargetNetwork.switch3.ethg$o[7].channel disabled false
attr mutable ""
par TargetNetwork.switch3.ethg$o[7].channel delay 0s
attr mutable ""
attr unit s
par TargetNetwork.switch3.ethg$o[7].channel datarate 1e+08bps
attr mutable ""
attr unit bps
par TargetNetwork.switch3.ethg$o[7].channel ber 0
attr mutable ""
par TargetNetwork.switch3.ethg$o[7].channel per 0
attr mutable ""
par TargetNetwork.udp_tcp25.ethg$o[0].channel typename "\"ned.DatarateChannel\""
par TargetNetwork.udp_tcp25.ethg$o[0].channel disabled false
attr mutable ""
par TargetNetwork.udp_tcp25.ethg$o[0].channel delay 0s
attr mutable ""
attr unit s
par TargetNetwork.udp_tcp25.ethg$o[0].channel datarate 1e+08bps
attr mutable ""
attr unit bps
par TargetNetwork.udp_tcp25.ethg$o[0].channel ber 0
attr mutable ""
par TargetNetwork.udp_tcp25.ethg$o[0].channel per 0
attr mutable ""
par TargetNetwork.switch4.ethg$o[0].channel typename "\"ned.DatarateChannel\""
par TargetNetwork.switch4.ethg$o[0].channel disabled false
attr mutable ""
par TargetNetwork.switch4.ethg$o[0].channel delay 0s
attr mutable ""
attr unit s
par TargetNetwork.switch4.ethg$o[0].channel datarate 1e+08bps
attr mutable ""
attr unit bps
par TargetNetwork.switch4.ethg$o[0].channel ber 0
attr mutable ""
par TargetNetwork.switch4.ethg$o[0].channel per 0
attr mutable ""
par TargetNetwork.udp_tcp26.ethg$o[0].channel typename "\"ned.DatarateChannel\""
par TargetNetwork.udp_tcp26.ethg$o[0].channel disabled false
attr mutable ""
par TargetNetwork.udp_tcp26.ethg$o[0].channel delay 0s
attr mutable ""
attr unit s
par TargetNetwork.udp_tcp26.ethg$o[0].channel datarate 1e+08bps
attr mutable ""
attr unit bps
par TargetNetwork.udp_tcp26.ethg$o[0].channel ber 0
attr mutable ""
par TargetNetwork.udp_tcp26.ethg$o[0].channel per 0
attr mutable ""
par TargetNetwork.switch4.ethg$o[1].channel typename "\"ned.DatarateChannel\""
par TargetNetwork.switch4.ethg$o[1].channel disabled false
attr mutable ""
par TargetNetwork.switch4.ethg$o[1].channel delay 0s
attr mutable ""
attr unit s
par TargetNetwork.switch4.ethg$o[1].channel datarate 1e+08bps
attr mutable ""
attr unit bps
par TargetNetwork.switch4.ethg$o[1].channel ber 0
attr mutable ""
par TargetNetwork.switch4.ethg$o[1].channel per 0
attr mutable ""
par TargetNetwork.udp_tcp28.ethg$o[0].channel typename "\"ned.DatarateChannel\""
par TargetNetwork.udp_tcp28.ethg$o[0].channel disabled false
attr mutable ""
par TargetNetwork.udp_tcp28.ethg$o[0].channel delay 0s
attr mutable ""
attr unit s
par TargetNetwork.udp_tcp28.ethg$o[0].channel datarate 1e+08bps
attr mutable ""
attr unit bps
par TargetNetwork.udp_tcp28.ethg$o[0].channel ber 0
attr mutable ""
par TargetNetwork.udp_tcp28.ethg$o[0].channel per 0
attr mutable ""
par TargetNetwork.switch4.ethg$o[2].channel typename "\"ned.DatarateChannel\""
par TargetNetwork.switch4.ethg$o[2].channel disabled false
attr mutable ""
par TargetNetwork.switch4.ethg$o[2].channel delay 0s
attr mutable ""
attr unit s
par TargetNetwork.switch4.ethg$o[2].channel datarate 1e+08bps
attr mutable ""
attr unit bps
par TargetNetwork.switch4.ethg$o[2].channel ber 0
attr mutable ""
par TargetNetwork.switch4.ethg$o[2].channel per 0
attr mutable ""
par TargetNetwork.udp_tcp27.ethg$o[0].channel typename "\"ned.DatarateChannel\""
par TargetNetwork.udp_tcp27.ethg$o[0].channel disabled false
attr mutable ""
par TargetNetwork.udp_tcp27.ethg$o[0].channel delay 0s
attr mutable ""
attr unit s
par TargetNetwork.udp_tcp27.ethg$o[0].channel datarate 1e+08bps
attr mutable ""
attr unit bps
par TargetNetwork.udp_tcp27.ethg$o[0].channel ber 0
attr mutable ""
par TargetNetwork.udp_tcp27.ethg$o[0].channel per 0
attr mutable ""
par TargetNetwork.switch4.ethg$o[3].channel typename "\"ned.DatarateChannel\""
par TargetNetwork.switch4.ethg$o[3].channel disabled false
attr mutable ""
par TargetNetwork.switch4.ethg$o[3].channel delay 0s
attr mutable ""
attr unit s
par TargetNetwork.switch4.ethg$o[3].channel datarate 1e+08bps
attr mutable ""
attr unit bps
par TargetNetwork.switch4.ethg$o[3].channel ber 0
attr mutable ""
par TargetNetwork.switch4.ethg$o[3].channel per 0
attr mutable ""
par TargetNetwork.udp_tcp29.ethg$o[0].channel typename "\"ned.DatarateChannel\""
par TargetNetwork.udp_tcp29.ethg$o[0].channel disabled false
attr mutable ""
par TargetNetwork.udp_tcp29.ethg$o[0].channel delay 0s
attr mutable ""
attr unit s
par TargetNetwork.udp_tcp29.ethg$o[0].channel datarate 1e+08bps
attr mutable ""
attr unit bps
par TargetNetwork.udp_tcp29.ethg$o[0].channel ber 0
attr mutable ""
par TargetNetwork.udp_tcp29.ethg$o[0].channel per 0
attr mutable ""
par TargetNetwork.switch4.ethg$o[4].channel typename "\"ned.DatarateChannel\""
par TargetNetwork.switch4.ethg$o[4].channel disabled false
attr mutable ""
par TargetNetwork.switch4.ethg$o[4].channel delay 0s
attr mutable ""
attr unit s
par TargetNetwork.switch4.ethg$o[4].channel datarate 1e+08bps
attr mutable ""
attr unit bps
par TargetNetwork.switch4.ethg$o[4].channel ber 0
attr mutable ""
par TargetNetwork.switch4.ethg$o[4].channel per 0
attr mutable ""
par TargetNetwork.udp_tcp30.ethg$o[0].channel typename "\"ned.DatarateChannel\""
par TargetNetwork.udp_tcp30.ethg$o[0].channel disabled false
attr mutable ""
par TargetNetwork.udp_tcp30.ethg$o[0].channel delay 0s
attr mutable ""
attr unit s
par TargetNetwork.udp_tcp30.ethg$o[0].channel datarate 1e+08bps
attr mutable ""
attr unit bps
par TargetNetwork.udp_tcp30.ethg$o[0].channel ber 0
attr mutable ""
par TargetNetwork.udp_tcp30.ethg$o[0].channel per 0
attr mutable ""
par TargetNetwork.switch4.ethg$o[5].channel typename "\"ned.DatarateChannel\""
par TargetNetwork.switch4.ethg$o[5].channel disabled false
attr mutable ""
par TargetNetwork.switch4.ethg$o[5].channel delay 0s
attr mutable ""
attr unit s
par TargetNetwork.switch4.ethg$o[5].channel datarate 1e+08bps
attr mutable ""
attr unit bps
par TargetNetwork.switch4.ethg$o[5].channel ber 0
attr mutable ""
par TargetNetwork.switch4.ethg$o[5].channel per 0
attr mutable ""
par TargetNetwork.udp_tcp31.ethg$o[0].channel typename "\"ned.DatarateChannel\""
par TargetNetwork.udp_tcp31.ethg$o[0].channel disabled false
attr mutable ""
par TargetNetwork.udp_tcp31.ethg$o[0].channel delay 0s
attr mutable ""
attr unit s
par TargetNetwork.udp_tcp31.ethg$o[0].channel datarate 1e+08bps
attr mutable ""
attr unit bps
par TargetNetwork.udp_tcp31.ethg$o[0].channel ber 0
attr mutable ""
par TargetNetwork.udp_tcp31.ethg$o[0].channel per 0
attr mutable ""
par TargetNetwork.switch4.ethg$o[6].channel typename "\"ned.DatarateChannel\""
par TargetNetwork.switch4.ethg$o[6].channel disabled false
attr mutable ""
par TargetNetwork.switch4.ethg$o[6].channel delay 0s
attr mutable ""
attr unit s
par TargetNetwork.switch4.ethg$o[6].channel datarate 1e+08bps
attr mutable ""
attr unit bps
par TargetNetwork.switch4.ethg$o[6].channel ber 0
attr mutable ""
par TargetNetwork.switch4.ethg$o[6].channel per 0
attr mutable ""
par TargetNetwork.udp_tcp32.ethg$o[0].channel typename "\"ned.DatarateChannel\""
par TargetNetwork.udp_tcp32.ethg$o[0].channel disabled false
attr mutable ""
par TargetNetwork.udp_tcp32.ethg$o[0].channel delay 0s
attr mutable ""
attr unit s
par TargetNetwork.udp_tcp32.ethg$o[0].channel datarate 1e+08bps
attr mutable ""
attr unit bps
par TargetNetwork.udp_tcp32.ethg$o[0].channel ber 0
attr mutable ""
par TargetNetwork.udp_tcp32.ethg$o[0].channel per 0
attr mutable ""
par TargetNetwork.switch4.ethg$o[7].channel typename "\"ned.DatarateChannel\""
par TargetNetwork.switch4.ethg$o[7].channel disabled false
attr mutable ""
par TargetNetwork.switch4.ethg$o[7].channel delay 0s
attr mutable ""
attr unit s
par TargetNetwork.switch4.ethg$o[7].channel datarate 1e+08bps
attr mutable ""
attr unit bps
par TargetNetwork.switch4.ethg$o[7].channel ber 0
attr mutable ""
par TargetNetwork.switch4.ethg$o[7].channel per 0
attr mutable ""
par TargetNetwork.udp_tcp33.ethg$o[0].channel typename "\"ned.DatarateChannel\""
par TargetNetwork.udp_tcp33.ethg$o[0].channel disabled false
attr mutable ""
par TargetNetwork.udp_tcp33.ethg$o[0].channel delay 0s
attr mutable ""
attr unit s
par TargetNetwork.udp_tcp33.ethg$o[0].channel datarate 1e+08bps
attr mutable ""
attr unit bps
par TargetNetwork.udp_tcp33.ethg$o[0].channel ber 0
attr mutable ""
par TargetNetwork.udp_tcp33.ethg$o[0].channel per 0
attr mutable ""
par TargetNetwork.switch5.ethg$o[0].channel typename "\"ned.DatarateChannel\""
par TargetNetwork.switch5.ethg$o[0].channel disabled false
attr mutable ""
par TargetNetwork.switch5.ethg$o[0].channel delay 0s
attr mutable ""
attr unit s
par TargetNetwork.switch5.ethg$o[0].channel datarate 1e+08bps
attr mutable ""
attr unit bps
par TargetNetwork.switch5.ethg$o[0].channel ber 0
attr mutable ""
par TargetNetwork.switch5.ethg$o[0].channel per 0
attr mutable ""
par TargetNetwork.udp_tcp34.ethg$o[0].channel typename "\"ned.DatarateChannel\""
par TargetNetwork.udp_tcp34.ethg$o[0].channel disabled false
attr mutable ""
par TargetNetwork.udp_tcp34.ethg$o[0].channel delay 0s
attr mutable ""
attr unit s
par TargetNetwork.udp_tcp34.ethg$o[0].channel datarate 1e+08bps
attr mutable ""
attr unit bps
par TargetNetwork.udp_tcp34.ethg$o[0].channel ber 0
attr mutable ""
par TargetNetwork.udp_tcp34.ethg$o[0].channel per 0
attr mutable ""
par TargetNetwork.switch5.ethg$o[1].channel typename "\"ned.DatarateChannel\""
par TargetNetwork.switch5.ethg$o[1].channel disabled false
attr mutable ""
par TargetNetwork.switch5.ethg$o[1].channel delay 0s
attr mutable ""
attr unit s
par TargetNetwork.switch5.ethg$o[1].channel datarate 1e+08bps
attr mutable ""
attr unit bps
par TargetNetwork.switch5.ethg$o[1].channel ber 0
attr mutable ""
par TargetNetwork.switch5.ethg$o[1].channel per 0
attr mutable ""
par TargetNetwork.udp_tcp35.ethg$o[0].channel typename "\"ned.DatarateChannel\""
par TargetNetwork.udp_tcp35.ethg$o[0].channel disabled false
attr mutable ""
par TargetNetwork.udp_tcp35.ethg$o[0].channel delay 0s
attr mutable ""
attr unit s
par TargetNetwork.udp_tcp35.ethg$o[0].channel datarate 1e+08bps
attr mutable ""
attr unit bps
par TargetNetwork.udp_tcp35.ethg$o[0].channel ber 0
attr mutable ""
par TargetNetwork.udp_tcp35.ethg$o[0].channel per 0
attr mutable ""
par TargetNetwork.switch5.ethg$o[2].channel typename "\"ned.DatarateChannel\""
par TargetNetwork.switch5.ethg$o[2].channel disabled false
attr mutable ""
par TargetNetwork.switch5.ethg$o[2].channel delay 0s
attr mutable ""
attr unit s
par TargetNetwork.switch5.ethg$o[2].channel datarate 1e+08bps
attr mutable ""
attr unit bps
par TargetNetwork.switch5.ethg$o[2].channel ber 0
attr mutable ""
par TargetNetwork.switch5.ethg$o[2].channel per 0
attr mutable ""
par TargetNetwork.udp_tcp36.ethg$o[0].channel typename "\"ned.DatarateChannel\""
par TargetNetwork.udp_tcp36.ethg$o[0].channel disabled false
attr mutable ""
par TargetNetwork.udp_tcp36.ethg$o[0].channel delay 0s
attr mutable ""
attr unit s
par TargetNetwork.udp_tcp36.ethg$o[0].channel datarate 1e+08bps
attr mutable ""
attr unit bps
par TargetNetwork.udp_tcp36.ethg$o[0].channel ber 0
attr mutable ""
par TargetNetwork.udp_tcp36.ethg$o[0].channel per 0
attr mutable ""
par TargetNetwork.switch5.ethg$o[3].channel typename "\"ned.DatarateChannel\""
par TargetNetwork.switch5.ethg$o[3].channel disabled false
attr mutable ""
par TargetNetwork.switch5.ethg$o[3].channel delay 0s
attr mutable ""
attr unit s
par TargetNetwork.switch5.ethg$o[3].channel datarate 1e+08bps
attr mutable ""
attr unit bps
par TargetNetwork.switch5.ethg$o[3].channel ber 0
attr mutable ""
par TargetNetwork.switch5.ethg$o[3].channel per 0
attr mutable ""
par TargetNetwork.udp_tcp37.ethg$o[0].channel typename "\"ned.DatarateChannel\""
par TargetNetwork.udp_tcp37.ethg$o[0].channel disabled false
attr mutable ""
par TargetNetwork.udp_tcp37.ethg$o[0].channel delay 0s
attr mutable ""
attr unit s
par TargetNetwork.udp_tcp37.ethg$o[0].channel datarate 1e+08bps
attr mutable ""
attr unit bps
par TargetNetwork.udp_tcp37.ethg$o[0].channel ber 0
attr mutable ""
par TargetNetwork.udp_tcp37.ethg$o[0].channel per 0
attr mutable ""
par TargetNetwork.switch5.ethg$o[4].channel typename "\"ned.DatarateChannel\""
par TargetNetwork.switch5.ethg$o[4].channel disabled false
attr mutable ""
par TargetNetwork.switch5.ethg$o[4].channel delay 0s
attr mutable ""
attr unit s
par TargetNetwork.switch5.ethg$o[4].channel datarate 1e+08bps
attr mutable ""
attr unit bps
par TargetNetwork.switch5.ethg$o[4].channel ber 0
attr mutable ""
par TargetNetwork.switch5.ethg$o[4].channel per 0
attr mutable ""
par TargetNetwork.udp_tcp38.ethg$o[0].channel typename "\"ned.DatarateChannel\""
par TargetNetwork.udp_tcp38.ethg$o[0].channel disabled false
attr mutable ""
par TargetNetwork.udp_tcp38.ethg$o[0].channel delay 0s
attr mutable ""
attr unit s
par TargetNetwork.udp_tcp38.ethg$o[0].channel datarate 1e+08bps
attr mutable ""
attr unit bps
par TargetNetwork.udp_tcp38.ethg$o[0].channel ber 0
attr mutable ""
par TargetNetwork.udp_tcp38.ethg$o[0].channel per 0
attr mutable ""
par TargetNetwork.switch5.ethg$o[5].channel typename "\"ned.DatarateChannel\""
par TargetNetwork.switch5.ethg$o[5].channel disabled false
attr mutable ""
par TargetNetwork.switch5.ethg$o[5].channel delay 0s
attr mutable ""
attr unit s
par TargetNetwork.switch5.ethg$o[5].channel datarate 1e+08bps
attr mutable ""
attr unit bps
par TargetNetwork.switch5.ethg$o[5].channel ber 0
attr mutable ""
par TargetNetwork.switch5.ethg$o[5].channel per 0
attr mutable ""
par TargetNetwork.udp_tcp39.ethg$o[0].channel typename "\"ned.DatarateChannel\""
par TargetNetwork.udp_tcp39.ethg$o[0].channel disabled false
attr mutable ""
par TargetNetwork.udp_tcp39.ethg$o[0].channel delay 0s
attr mutable ""
attr unit s
par TargetNetwork.udp_tcp39.ethg$o[0].channel datarate 1e+08bps
attr mutable ""
attr unit bps
par TargetNetwork.udp_tcp39.ethg$o[0].channel ber 0
attr mutable ""
par TargetNetwork.udp_tcp39.ethg$o[0].channel per 0
attr mutable ""
par TargetNetwork.switch5.ethg$o[6].channel typename "\"ned.DatarateChannel\""
par TargetNetwork.switch5.ethg$o[6].channel disabled false
attr mutable ""
par TargetNetwork.switch5.ethg$o[6].channel delay 0s
attr mutable ""
attr unit s
par TargetNetwork.switch5.ethg$o[6].channel datarate 1e+08bps
attr mutable ""
attr unit bps
par TargetNetwork.switch5.ethg$o[6].channel ber 0
attr mutable ""
par TargetNetwork.switch5.ethg$o[6].channel per 0
attr mutable ""
par TargetNetwork.udp_tcp40.ethg$o[0].channel typename "\"ned.DatarateChannel\""
par TargetNetwork.udp_tcp40.ethg$o[0].channel disabled false
attr mutable ""
par TargetNetwork.udp_tcp40.ethg$o[0].channel delay 0s
attr mutable ""
attr unit s
par TargetNetwork.udp_tcp40.ethg$o[0].channel datarate 1e+08bps
attr mutable ""
attr unit bps
par TargetNetwork.udp_tcp40.ethg$o[0].channel ber 0
attr mutable ""
par TargetNetwork.udp_tcp40.ethg$o[0].channel per 0
attr mutable ""
par TargetNetwork.switch5.ethg$o[7].channel typename "\"ned.DatarateChannel\""
par TargetNetwork.switch5.ethg$o[7].channel disabled false
attr mutable ""
par TargetNetwork.switch5.ethg$o[7].channel delay 0s
attr mutable ""
attr unit s
par TargetNetwork.switch5.ethg$o[7].channel datarate 1e+08bps
attr mutable ""
attr unit bps
par TargetNetwork.switch5.ethg$o[7].channel ber 0
attr mutable ""
par TargetNetwork.switch5.ethg$o[7].channel per 0
attr mutable ""
par TargetNetwork.switch.ethg$o[8].channel typename "\"ned.DatarateChannel\""
par TargetNetwork.switch.ethg$o[8].channel disabled false
attr mutable ""
par TargetNetwork.switch.ethg$o[8].channel delay 0s
attr mutable ""
attr unit s
par TargetNetwork.switch.ethg$o[8].channel datarate 1e+08bps
attr mutable ""
attr unit bps
par TargetNetwork.switch.ethg$o[8].channel ber 0
attr mutable ""
par TargetNetwork.switch.ethg$o[8].channel per 0
attr mutable ""
par TargetNetwork.switch2.ethg$o[8].channel typename "\"ned.DatarateChannel\""
par TargetNetwork.switch2.ethg$o[8].channel disabled false
attr mutable ""
par TargetNetwork.switch2.ethg$o[8].channel delay 0s
attr mutable ""
attr unit s
par TargetNetwork.switch2.ethg$o[8].channel datarate 1e+08bps
attr mutable ""
attr unit bps
par TargetNetwork.switch2.ethg$o[8].channel ber 0
attr mutable ""
par TargetNetwork.switch2.ethg$o[8].channel per 0
attr mutable ""
par TargetNetwork.switch2.ethg$o[9].channel typename "\"ned.DatarateChannel\""
par TargetNetwork.switch2.ethg$o[9].channel disabled false
attr mutable ""
par TargetNetwork.switch2.ethg$o[9].channel delay 0s
attr mutable ""
attr unit s
par TargetNetwork.switch2.ethg$o[9].channel datarate 1e+08bps
attr mutable ""
attr unit bps
par TargetNetwork.switch2.ethg$o[9].channel ber 0
attr mutable ""
par TargetNetwork.switch2.ethg$o[9].channel per 0
attr mutable ""
par TargetNetwork.switch3.ethg$o[8].channel typename "\"ned.DatarateChannel\""
par TargetNetwork.switch3.ethg$o[8].channel disabled false
attr mutable ""
par TargetNetwork.switch3.ethg$o[8].channel delay 0s
attr mutable ""
attr unit s
par TargetNetwork.switch3.ethg$o[8].channel datarate 1e+08bps
attr mutable ""
attr unit bps
par TargetNetwork.switch3.ethg$o[8].channel ber 0
attr mutable ""
par TargetNetwork.switch3.ethg$o[8].channel per 0
attr mutable ""
par TargetNetwork.switch3.ethg$o[9].channel typename "\"ned.DatarateChannel\""
par TargetNetwork.switch3.ethg$o[9].channel disabled false
attr mutable ""
par TargetNetwork.switch3.ethg$o[9].channel delay 0s
attr mutable ""
attr unit s
par TargetNetwork.switch3.ethg$o[9].channel datarate 1e+08bps
attr mutable ""
attr unit bps
par TargetNetwork.switch3.ethg$o[9].channel ber 0
attr mutable ""
par TargetNetwork.switch3.ethg$o[9].channel per 0
attr mutable ""
par TargetNetwork.switch4.ethg$o[8].channel typename "\"ned.DatarateChannel\""
par TargetNetwork.switch4.ethg$o[8].channel disabled false
attr mutable ""
par TargetNetwork.switch4.ethg$o[8].channel delay 0s
attr mutable ""
attr unit s
par TargetNetwork.switch4.ethg$o[8].channel datarate 1e+08bps
attr mutable ""
attr unit bps
par TargetNetwork.switch4.ethg$o[8].channel ber 0
attr mutable ""
par TargetNetwork.switch4.ethg$o[8].channel per 0
attr mutable ""
par TargetNetwork.switch4.ethg$o[9].channel typename "\"ned.DatarateChannel\""
par TargetNetwork.switch4.ethg$o[9].channel disabled false
attr mutable ""
par TargetNetwork.switch4.ethg$o[9].channel delay 0s
attr mutable ""
attr unit s
par TargetNetwork.switch4.ethg$o[9].channel datarate 1e+08bps
attr mutable ""
attr unit bps
par TargetNetwork.switch4.ethg$o[9].channel ber 0
attr mutable ""
par TargetNetwork.switch4.ethg$o[9].channel per 0
attr mutable ""
par TargetNetwork.switch5.ethg$o[8].channel typename "\"ned.DatarateChannel\""
par TargetNetwork.switch5.ethg$o[8].channel disabled false
attr mutable ""
par TargetNetwork.switch5.ethg$o[8].channel delay 0s
attr mutable ""
attr unit s
par TargetNetwork.switch5.ethg$o[8].channel datarate 1e+08bps
attr mutable ""
attr unit bps
par TargetNetwork.switch5.ethg$o[8].channel ber 0
attr mutable ""
par TargetNetwork.switch5.ethg$o[8].channel per 0
attr mutable ""
par TargetNetwork.visualizer.sceneVisualizer typename "\"inet.visualizer.canvas.scene.SceneCanvasVisualizer\""
par TargetNetwork.visualizer.sceneVisualizer visualizationTargetModule "\"^.^\""
par TargetNetwork.visualizer.sceneVisualizer visualizationSubjectModule "\"^.^\""
par TargetNetwork.visualizer.sceneVisualizer tags "\"\""
par TargetNetwork.visualizer.sceneVisualizer physicalEnvironmentModule "\"physicalEnvironment\""
par TargetNetwork.visualizer.sceneVisualizer networkNodeVisualizerModule "\"^.networkNodeVisualizer\""
par TargetNetwork.visualizer.sceneVisualizer axisLength "nan m"
attr mutable ""
attr unit m
par TargetNetwork.visualizer.sceneVisualizer animationSpeed 0
par TargetNetwork.visualizer.sceneVisualizer sceneMinX "nan m"
attr unit m
par TargetNetwork.visualizer.sceneVisualizer sceneMinY "nan m"
attr unit m
par TargetNetwork.visualizer.sceneVisualizer sceneMinZ "nan m"
attr unit m
par TargetNetwork.visualizer.sceneVisualizer sceneMaxX "nan m"
attr unit m
par TargetNetwork.visualizer.sceneVisualizer sceneMaxY "nan m"
attr unit m
par TargetNetwork.visualizer.sceneVisualizer sceneMaxZ "nan m"
attr unit m
par TargetNetwork.visualizer.sceneVisualizer zIndex 0
par TargetNetwork.visualizer.sceneVisualizer viewAngle "\"x right y down z out\""
attr mutable ""
par TargetNetwork.visualizer.sceneVisualizer viewScale "\"1 1\""
attr mutable ""
par TargetNetwork.visualizer.sceneVisualizer viewTranslation "\"0 0\""
attr mutable ""
par TargetNetwork.visualizer.sceneVisualizer descriptionFigure "\"\""
par TargetNetwork.visualizer.physicalEnvironmentVisualizer typename "\"inet.visualizer.canvas.environment.PhysicalEnvironmentCanvasVisualizer\""
par TargetNetwork.visualizer.physicalEnvironmentVisualizer visualizationTargetModule "\"^.^\""
par TargetNetwork.visualizer.physicalEnvironmentVisualizer visualizationSubjectModule "\"^.^\""
par TargetNetwork.visualizer.physicalEnvironmentVisualizer tags "\"\""
par TargetNetwork.visualizer.physicalEnvironmentVisualizer physicalEnvironmentModule "\"physicalEnvironment\""
par TargetNetwork.visualizer.physicalEnvironmentVisualizer displayObjects true
par TargetNetwork.visualizer.physicalEnvironmentVisualizer zIndex 0
par TargetNetwork.visualizer.networkNodeVisualizer typename "\"inet.visualizer.canvas.scene.NetworkNodeCanvasVisualizer\""
par TargetNetwork.visualizer.networkNodeVisualizer visualizationTargetModule "\"^.^\""
par TargetNetwork.visualizer.networkNodeVisualizer visualizationSubjectModule "\"^.^\""
par TargetNetwork.visualizer.networkNodeVisualizer tags "\"\""
par TargetNetwork.visualizer.networkNodeVisualizer nodeFilter "\"*\""
attr mutable ""
par TargetNetwork.visualizer.networkNodeVisualizer annotationSpacing 4
par TargetNetwork.visualizer.networkNodeVisualizer placementPenalty 10
par TargetNetwork.visualizer.networkNodeVisualizer zIndex 0
par TargetNetwork.visualizer.networkConnectionVisualizer typename "\"inet.visualizer.canvas.scene.NetworkConnectionCanvasVisualizer\""
par TargetNetwork.visualizer.networkConnectionVisualizer visualizationTargetModule "\"^.^\""
par TargetNetwork.visualizer.networkConnectionVisualizer visualizationSubjectModule "\"^.^\""
par TargetNetwork.visualizer.networkConnectionVisualizer tags "\"\""
par TargetNetwork.visualizer.networkConnectionVisualizer displayNetworkConnections true
par TargetNetwork.visualizer.networkConnectionVisualizer nodeFilter "\"\""
attr mutable ""
par TargetNetwork.visualizer.networkConnectionVisualizer lineColor "\"black\""
par TargetNetwork.visualizer.networkConnectionVisualizer lineStyle "\"solid\""
par TargetNetwork.visualizer.networkConnectionVisualizer lineWidth 1
par TargetNetwork.visualizer.networkConnectionVisualizer zIndex 0
par TargetNetwork.visualizer.mobilityVisualizer typename "\"inet.visualizer.canvas.mobility.MobilityCanvasVisualizer\""
par TargetNetwork.visualizer.mobilityVisualizer visualizationTargetModule "\"^.^\""
par TargetNetwork.visualizer.mobilityVisualizer visualizationSubjectModule "\"^.^\""
par TargetNetwork.visualizer.mobilityVisualizer tags "\"\""
par TargetNetwork.visualizer.mobilityVisualizer networkNodeVisualizerModule "\"^.networkNodeVisualizer\""
par TargetNetwork.visualizer.mobilityVisualizer displayMobility true
par TargetNetwork.visualizer.mobilityVisualizer animationSpeed 0
par TargetNetwork.visualizer.mobilityVisualizer moduleFilter "\"**.mobility\""
attr mutable ""
par TargetNetwork.visualizer.mobilityVisualizer displayPositions false
par TargetNetwork.visualizer.mobilityVisualizer positionCircleRadius 4
par TargetNetwork.visualizer.mobilityVisualizer positionCircleLineWidth 1
par TargetNetwork.visualizer.mobilityVisualizer positionCircleLineColor "\"dark\""
attr enum light,dark
par TargetNetwork.visualizer.mobilityVisualizer positionCircleFillColor "\"dark\""
attr enum light,dark
par TargetNetwork.visualizer.mobilityVisualizer displayOrientations false
par TargetNetwork.visualizer.mobilityVisualizer orientationPieRadius 32
par TargetNetwork.visualizer.mobilityVisualizer orientationPieSize 0.2
par TargetNetwork.visualizer.mobilityVisualizer orientationPieOpacity 0.25
par TargetNetwork.visualizer.mobilityVisualizer orientationLineColor "\"black\""
par TargetNetwork.visualizer.mobilityVisualizer orientationLineStyle "\"solid\""
par TargetNetwork.visualizer.mobilityVisualizer orientationLineWidth 1
par TargetNetwork.visualizer.mobilityVisualizer orientationFillColor "\"blue\""
par TargetNetwork.visualizer.mobilityVisualizer displayVelocities false
par TargetNetwork.visualizer.mobilityVisualizer velocityArrowScale 1
par TargetNetwork.visualizer.mobilityVisualizer velocityLineColor "\"black\""
par TargetNetwork.visualizer.mobilityVisualizer velocityLineStyle "\"solid\""
par TargetNetwork.visualizer.mobilityVisualizer velocityLineWidth 1
par TargetNetwork.visualizer.mobilityVisualizer displayMovementTrails false
par TargetNetwork.visualizer.mobilityVisualizer movementTrailLineColor "\"dark\""
attr enum light,dark
par TargetNetwork.visualizer.mobilityVisualizer movementTrailLineStyle "\"solid\""
par TargetNetwork.visualizer.mobilityVisualizer movementTrailLineWidth 1
par TargetNetwork.visualizer.mobilityVisualizer trailLength 100
par TargetNetwork.visualizer.mobilityVisualizer zIndex 0
par TargetNetwork.visualizer.statisticVisualizer typename "\"inet.visualizer.canvas.common.StatisticCanvasVisualizer\""
par TargetNetwork.visualizer.statisticVisualizer visualizationTargetModule "\"^.^\""
par TargetNetwork.visualizer.statisticVisualizer visualizationSubjectModule "\"^.^\""
par TargetNetwork.visualizer.statisticVisualizer tags "\"\""
par TargetNetwork.visualizer.statisticVisualizer networkNodeVisualizerModule "\"^.networkNodeVisualizer\""
par TargetNetwork.visualizer.statisticVisualizer displayStatistics true
par TargetNetwork.visualizer.statisticVisualizer signalName "\"\""
par TargetNetwork.visualizer.statisticVisualizer statisticName "\"\""
par TargetNetwork.visualizer.statisticVisualizer statisticUnit "\"\""
par TargetNetwork.visualizer.statisticVisualizer statisticExpression "\"\""
par TargetNetwork.visualizer.statisticVisualizer sourceFilter "\"**\""
attr mutable ""
par TargetNetwork.visualizer.statisticVisualizer format "\"%n: %v %u\""
attr mutable ""
par TargetNetwork.visualizer.statisticVisualizer unit "\"\""
par TargetNetwork.visualizer.statisticVisualizer font "\"<default>\""
par TargetNetwork.visualizer.statisticVisualizer textColor "\"black\""
par TargetNetwork.visualizer.statisticVisualizer backgroundColor "\"white\""
par TargetNetwork.visualizer.statisticVisualizer opacity 1
par TargetNetwork.visualizer.statisticVisualizer placementHint "\"top\""
par TargetNetwork.visualizer.statisticVisualizer placementPriority 0
par TargetNetwork.visualizer.statisticVisualizer zIndex 10
par TargetNetwork.visualizer.statisticVisualizer propertyName "\"\""
par TargetNetwork.visualizer.statisticVisualizer propertyIndex "\"\""
par TargetNetwork.visualizer.infoVisualizer typename "\"inet.visualizer.canvas.common.InfoCanvasVisualizer\""
par TargetNetwork.visualizer.infoVisualizer visualizationTargetModule "\"^.^\""
par TargetNetwork.visualizer.infoVisualizer visualizationSubjectModule "\"^.^\""
par TargetNetwork.visualizer.infoVisualizer tags "\"\""
par TargetNetwork.visualizer.infoVisualizer networkNodeVisualizerModule "\"^.networkNodeVisualizer\""
par TargetNetwork.visualizer.infoVisualizer displayInfos true
par TargetNetwork.visualizer.infoVisualizer modules "\"\""
attr mutable ""
par TargetNetwork.visualizer.infoVisualizer format "\"%t\""
attr mutable ""
par TargetNetwork.visualizer.infoVisualizer font "\"<default>\""
par TargetNetwork.visualizer.infoVisualizer textColor "\"black\""
par TargetNetwork.visualizer.infoVisualizer backgroundColor "\"white\""
par TargetNetwork.visualizer.infoVisualizer opacity 1
par TargetNetwork.visualizer.infoVisualizer placementHint "\"top\""
par TargetNetwork.visualizer.infoVisualizer placementPriority 0
par TargetNetwork.visualizer.infoVisualizer zIndex 10
par TargetNetwork.visualizer.energyStorageVisualizer typename "\"inet.visualizer.canvas.power.EnergyStorageCanvasVisualizer\""
par TargetNetwork.visualizer.energyStorageVisualizer visualizationTargetModule "\"^.^\""
par TargetNetwork.visualizer.energyStorageVisualizer visualizationSubjectModule "\"^.^\""
par TargetNetwork.visualizer.energyStorageVisualizer tags "\"\""
par TargetNetwork.visualizer.energyStorageVisualizer networkNodeVisualizerModule "\"^.networkNodeVisualizer\""
par TargetNetwork.visualizer.energyStorageVisualizer displayEnergyStorages false
par TargetNetwork.visualizer.energyStorageVisualizer energyStorageFilter "\"**\""
par TargetNetwork.visualizer.energyStorageVisualizer color "\"green\""
par TargetNetwork.visualizer.energyStorageVisualizer width 8
par TargetNetwork.visualizer.energyStorageVisualizer height 24
par TargetNetwork.visualizer.energyStorageVisualizer spacing 2
par TargetNetwork.visualizer.energyStorageVisualizer placementHint "\"right\""
par TargetNetwork.visualizer.energyStorageVisualizer placementPriority 0
par TargetNetwork.visualizer.energyStorageVisualizer zIndex 10
par TargetNetwork.visualizer.mediumVisualizer typename "\"inet.visualizer.canvas.physicallayer.MediumCanvasVisualizer\""
par TargetNetwork.visualizer.mediumVisualizer visualizationTargetModule "\"^.^\""
par TargetNetwork.visualizer.mediumVisualizer visualizationSubjectModule "\"^.^\""
par TargetNetwork.visualizer.mediumVisualizer tags "\"\""
par TargetNetwork.visualizer.mediumVisualizer mediumModule "\"radioMedium\""
par TargetNetwork.visualizer.mediumVisualizer networkNodeVisualizerModule "\"^.networkNodeVisualizer\""
par TargetNetwork.visualizer.mediumVisualizer nodeFilter "\"*\""
attr mutable ""
par TargetNetwork.visualizer.mediumVisualizer interfaceFilter "\"*\""
attr mutable ""
par TargetNetwork.visualizer.mediumVisualizer packetFilter "(omnetpp::cValueHolder)holder: \"*\""
attr mutable ""
par TargetNetwork.visualizer.mediumVisualizer displaySignals false
par TargetNetwork.visualizer.mediumVisualizer signalColor "\"dark\""
attr enum light,dark
par TargetNetwork.visualizer.mediumVisualizer signalPropagationAnimationSpeed "nan "
attr mutable ""
par TargetNetwork.visualizer.mediumVisualizer signalPropagationAnimationTime 1s
attr unit s
par TargetNetwork.visualizer.mediumVisualizer signalPropagationAdditionalTime 0s
attr unit s
par TargetNetwork.visualizer.mediumVisualizer signalTransmissionAnimationSpeed "nan "
attr mutable ""
par TargetNetwork.visualizer.mediumVisualizer signalTransmissionAnimationTime 1s
attr unit s
par TargetNetwork.visualizer.mediumVisualizer signalAnimationSpeedChangeTimeMode "\"realTime\""
attr enum realTime,animationTime,simulationTime
par TargetNetwork.visualizer.mediumVisualizer signalAnimationSpeedChangeTime 1s
attr unit s
par TargetNetwork.visualizer.mediumVisualizer displaySignalDepartures false
par TargetNetwork.visualizer.mediumVisualizer signalDepartureImage "\"misc/signal_departure.png\""
par TargetNetwork.visualizer.mediumVisualizer signalDeparturePlacementHint "\"topCenter\""
par TargetNetwork.visualizer.mediumVisualizer signalDeparturePlacementPriority 1
par TargetNetwork.visualizer.mediumVisualizer displaySignalArrivals false
par TargetNetwork.visualizer.mediumVisualizer signalArrivalImage "\"misc/signal_arrival.png\""
par TargetNetwork.visualizer.mediumVisualizer signalArrivalPlacementHint "\"topCenter\""
par TargetNetwork.visualizer.mediumVisualizer signalArrivalPlacementPriority -1
par TargetNetwork.visualizer.mediumVisualizer displayCommunicationRanges false
par TargetNetwork.visualizer.mediumVisualizer communicationRangeLineColor "\"blue\""
par TargetNetwork.visualizer.mediumVisualizer communicationRangeLineStyle "\"solid\""
par TargetNetwork.visualizer.mediumVisualizer communicationRangeLineWidth 1
par TargetNetwork.visualizer.mediumVisualizer displayInterferenceRanges false
par TargetNetwork.visualizer.mediumVisualizer interferenceRangeLineColor "\"gray\""
par TargetNetwork.visualizer.mediumVisualizer interferenceRangeLineStyle "\"solid\""
par TargetNetwork.visualizer.mediumVisualizer interferenceRangeLineWidth 1
par TargetNetwork.visualizer.mediumVisualizer autoPowerAxis true
par TargetNetwork.visualizer.mediumVisualizer signalMinPower "inf dBmW"
attr unit dBmW
par TargetNetwork.visualizer.mediumVisualizer signalMaxPower 0dBmW
attr unit dBmW
par TargetNetwork.visualizer.mediumVisualizer signalMinPowerDensity "inf dBmWpMHz"
attr unit dBmWpMHz
par TargetNetwork.visualizer.mediumVisualizer signalMaxPowerDensity "-inf dBmWpMHz"
attr unit dBmWpMHz
par TargetNetwork.visualizer.mediumVisualizer autoTimeAxis true
par TargetNetwork.visualizer.mediumVisualizer signalMinTime 0s
attr unit s
par TargetNetwork.visualizer.mediumVisualizer signalMaxTime 0s
attr unit s
par TargetNetwork.visualizer.mediumVisualizer autoFrequencyAxis true
par TargetNetwork.visualizer.mediumVisualizer signalMinFrequency "inf Hz"
attr unit Hz
par TargetNetwork.visualizer.mediumVisualizer signalMaxFrequency "-inf Hz"
attr unit Hz
par TargetNetwork.visualizer.mediumVisualizer displayMainPowerDensityMap false
par TargetNetwork.visualizer.mediumVisualizer mainPowerDensityMapPixmapDensity 1
par TargetNetwork.visualizer.mediumVisualizer mainPowerDensityMapMinX 0
par TargetNetwork.visualizer.mediumVisualizer mainPowerDensityMapMaxX "nan "
par TargetNetwork.visualizer.mediumVisualizer mainPowerDensityMapMinY 0
par TargetNetwork.visualizer.mediumVisualizer mainPowerDensityMapMaxY "nan "
par TargetNetwork.visualizer.mediumVisualizer mainPowerDensityMapZ 0
par TargetNetwork.visualizer.mediumVisualizer mainPowerDensityMapFigureXTickCount 3
par TargetNetwork.visualizer.mediumVisualizer mainPowerDensityMapFigureYTickCount 3
par TargetNetwork.visualizer.mediumVisualizer displayPowerDensityMaps false
par TargetNetwork.visualizer.mediumVisualizer powerDensityMapMode "\"auto\""
attr enum total,signal,auto
par TargetNetwork.visualizer.mediumVisualizer powerDensityMapPixelMode "\"mean\""
attr enum sample,partition,mean
par TargetNetwork.visualizer.mediumVisualizer powerDensityMapApproximationSize 10
par TargetNetwork.visualizer.mediumVisualizer powerDensityMapCenterFrequency "nan Hz"
attr mutable ""
attr unit Hz
par TargetNetwork.visualizer.mediumVisualizer powerDensityMapBandwidth 0Hz
attr mutable ""
attr unit Hz
par TargetNetwork.visualizer.mediumVisualizer powerDensityMapFigureWidth 200
par TargetNetwork.visualizer.mediumVisualizer powerDensityMapFigureHeight 120
par TargetNetwork.visualizer.mediumVisualizer powerDensityMapPixmapWidth 200
par TargetNetwork.visualizer.mediumVisualizer powerDensityMapPixmapHeight 120
par TargetNetwork.visualizer.mediumVisualizer powerDensityMapZ 0
par TargetNetwork.visualizer.mediumVisualizer powerDensityMapFigureXTickCount 3
par TargetNetwork.visualizer.mediumVisualizer powerDensityMapFigureYTickCount 3
par TargetNetwork.visualizer.mediumVisualizer displaySpectrums false
par TargetNetwork.visualizer.mediumVisualizer spectrumMode "\"auto\""
attr enum total,signal,auto
par TargetNetwork.visualizer.mediumVisualizer spectrumFigureWidth 200
par TargetNetwork.visualizer.mediumVisualizer spectrumFigureHeight 120
par TargetNetwork.visualizer.mediumVisualizer spectrumFigureXTickCount 3
par TargetNetwork.visualizer.mediumVisualizer spectrumFigureYTickCount 5
par TargetNetwork.visualizer.mediumVisualizer spectrumFigureInterpolationSize 5
par TargetNetwork.visualizer.mediumVisualizer spectrumPlacementHint "\"bottomCenter\""
par TargetNetwork.visualizer.mediumVisualizer spectrumPlacementPriority -1
par TargetNetwork.visualizer.mediumVisualizer displaySpectrograms false
par TargetNetwork.visualizer.mediumVisualizer spectrogramMode "\"auto\""
attr enum total,signal,auto
par TargetNetwork.visualizer.mediumVisualizer spectrogramPixelMode "\"mean\""
attr enum sample,partition,mean
par TargetNetwork.visualizer.mediumVisualizer spectrogramFigureWidth 200
par TargetNetwork.visualizer.mediumVisualizer spectrogramFigureHeight 120
par TargetNetwork.visualizer.mediumVisualizer spectrogramPixmapWidth 200
par TargetNetwork.visualizer.mediumVisualizer spectrogramPixmapHeight 120
par TargetNetwork.visualizer.mediumVisualizer spectrogramFigureXTickCount 3
par TargetNetwork.visualizer.mediumVisualizer spectrogramFigureYTickCount 5
par TargetNetwork.visualizer.mediumVisualizer spectrogramPlacementHint "\"bottomCenter\""
par TargetNetwork.visualizer.mediumVisualizer spectrogramPlacementPriority -1
par TargetNetwork.visualizer.mediumVisualizer zIndex 0
par TargetNetwork.visualizer.mediumVisualizer signalShape "\"ring\""
attr enum ring,sphere
par TargetNetwork.visualizer.mediumVisualizer signalOpacity 0.5
par TargetNetwork.visualizer.mediumVisualizer signalRingCount 20
par TargetNetwork.visualizer.mediumVisualizer signalRingSize 50m
attr unit m
par TargetNetwork.visualizer.mediumVisualizer signalFadingDistance 50m
attr unit m
par TargetNetwork.visualizer.mediumVisualizer signalFadingFactor 1.2
par TargetNetwork.visualizer.mediumVisualizer signalWaveCount 20
par TargetNetwork.visualizer.mediumVisualizer signalWaveLength 50m
attr unit m
par TargetNetwork.visualizer.mediumVisualizer signalWaveWidth 10m
attr unit m
par TargetNetwork.visualizer.mediumVisualizer signalWaveFadingAnimationSpeedFactor 1
par TargetNetwork.visualizer.mediumVisualizer displayCommunicationHeat false
par TargetNetwork.visualizer.obstacleLossVisualizer typename "\"inet.visualizer.canvas.physicallayer.TracingObstacleLossCanvasVisualizer\""
par TargetNetwork.visualizer.obstacleLossVisualizer visualizationTargetModule "\"^.^\""
par TargetNetwork.visualizer.obstacleLossVisualizer visualizationSubjectModule "\"^.^\""
par TargetNetwork.visualizer.obstacleLossVisualizer tags "\"\""
par TargetNetwork.visualizer.obstacleLossVisualizer displayIntersections false
par TargetNetwork.visualizer.obstacleLossVisualizer intersectionLineColor "\"red\""
par TargetNetwork.visualizer.obstacleLossVisualizer intersectionLineStyle "\"solid\""
par TargetNetwork.visualizer.obstacleLossVisualizer intersectionLineWidth 1
par TargetNetwork.visualizer.obstacleLossVisualizer displayFaceNormalVectors false
par TargetNetwork.visualizer.obstacleLossVisualizer faceNormalLineColor "\"grey\""
par TargetNetwork.visualizer.obstacleLossVisualizer faceNormalLineStyle "\"solid\""
par TargetNetwork.visualizer.obstacleLossVisualizer faceNormalLineWidth 1
par TargetNetwork.visualizer.obstacleLossVisualizer fadeOutMode "\"realTime\""
attr enum realTime,animationTime,simulationTime
par TargetNetwork.visualizer.obstacleLossVisualizer fadeOutTime 1s
attr unit s
par TargetNetwork.visualizer.obstacleLossVisualizer fadeOutAnimationSpeed 0
par TargetNetwork.visualizer.obstacleLossVisualizer zIndex 0
par TargetNetwork.visualizer.packetDropVisualizer typename "\"inet.visualizer.canvas.common.PacketDropCanvasVisualizer\""
par TargetNetwork.visualizer.packetDropVisualizer visualizationTargetModule "\"^.^\""
par TargetNetwork.visualizer.packetDropVisualizer visualizationSubjectModule "\"^.^\""
par TargetNetwork.visualizer.packetDropVisualizer tags "\"\""
par TargetNetwork.visualizer.packetDropVisualizer displayPacketDrops false
par TargetNetwork.visualizer.packetDropVisualizer nodeFilter "\"*\""
attr mutable ""
par TargetNetwork.visualizer.packetDropVisualizer interfaceFilter "\"*\""
attr mutable ""
par TargetNetwork.visualizer.packetDropVisualizer packetFilter "(omnetpp::cValueHolder)holder: \"*\""
attr mutable ""
par TargetNetwork.visualizer.packetDropVisualizer detailsFilter "\"*\""
attr mutable ""
par TargetNetwork.visualizer.packetDropVisualizer icon "\"msg/packet_s\""
par TargetNetwork.visualizer.packetDropVisualizer iconTintAmount 1
par TargetNetwork.visualizer.packetDropVisualizer iconTintColor "\"dark\""
par TargetNetwork.visualizer.packetDropVisualizer labelFormat "\"%n\""
attr mutable ""
par TargetNetwork.visualizer.packetDropVisualizer labelFont "\"<default>\""
par TargetNetwork.visualizer.packetDropVisualizer labelColor "\"black\""
par TargetNetwork.visualizer.packetDropVisualizer fadeOutMode "\"realTime\""
attr enum realTime,animationTime,simulationTime
par TargetNetwork.visualizer.packetDropVisualizer fadeOutTime 1s
attr unit s
par TargetNetwork.visualizer.packetDropVisualizer fadeOutAnimationSpeed 0
par TargetNetwork.visualizer.packetDropVisualizer zIndex 10
par TargetNetwork.visualizer.packetDropVisualizer dx 32
par TargetNetwork.visualizer.packetDropVisualizer dy 64
par TargetNetwork.visualizer.packetFlowVisualizer typename "\"inet.visualizer.canvas.flow.PacketFlowCanvasVisualizer\""
par TargetNetwork.visualizer.packetFlowVisualizer visualizationTargetModule "\"^.^\""
par TargetNetwork.visualizer.packetFlowVisualizer visualizationSubjectModule "\"^.^\""
par TargetNetwork.visualizer.packetFlowVisualizer tags "\"\""
par TargetNetwork.visualizer.packetFlowVisualizer displayRoutes false
par TargetNetwork.visualizer.packetFlowVisualizer startPathSignal "\"packetFlowStarted\""
par TargetNetwork.visualizer.packetFlowVisualizer extendPathSignal "\"packetReceivedFromLower\""
par TargetNetwork.visualizer.packetFlowVisualizer endPathSignal "\"packetFlowEnded\""
par TargetNetwork.visualizer.packetFlowVisualizer nodeFilter "\"*\""
attr mutable ""
par TargetNetwork.visualizer.packetFlowVisualizer packetFilter "(omnetpp::cValueHolder)holder: \"*\""
attr mutable ""
par TargetNetwork.visualizer.packetFlowVisualizer lineColor "\"dark\""
attr enum light,dark
par TargetNetwork.visualizer.packetFlowVisualizer lineStyle "\"dashed\""
par TargetNetwork.visualizer.packetFlowVisualizer lineWidth 3
par TargetNetwork.visualizer.packetFlowVisualizer lineSmooth false
par TargetNetwork.visualizer.packetFlowVisualizer lineShift 16
par TargetNetwork.visualizer.packetFlowVisualizer lineShiftMode "\"normal\""
par TargetNetwork.visualizer.packetFlowVisualizer lineContactSpacing 3
par TargetNetwork.visualizer.packetFlowVisualizer lineContactMode "\"rectangular\""
attr enum circular,rectangular
par TargetNetwork.visualizer.packetFlowVisualizer labelFormat "\"%L %p pk (%l)\""
par TargetNetwork.visualizer.packetFlowVisualizer labelFont "\"<default>, 8px\""
par TargetNetwork.visualizer.packetFlowVisualizer labelColor "\"\""
par TargetNetwork.visualizer.packetFlowVisualizer fadeOutMode "\"realTime\""
attr enum realTime,animationTime,simulationTime
par TargetNetwork.visualizer.packetFlowVisualizer fadeOutTime 0s
attr unit s
par TargetNetwork.visualizer.packetFlowVisualizer fadeOutAnimationSpeed 0
par TargetNetwork.visualizer.packetFlowVisualizer zIndex 4
par TargetNetwork.visualizer.queueVisualizer typename "\"inet.visualizer.canvas.common.QueueCanvasVisualizer\""
par TargetNetwork.visualizer.queueVisualizer visualizationTargetModule "\"^.^\""
par TargetNetwork.visualizer.queueVisualizer visualizationSubjectModule "\"^.^\""
par TargetNetwork.visualizer.queueVisualizer tags "\"\""
par TargetNetwork.visualizer.queueVisualizer networkNodeVisualizerModule "\"^.networkNodeVisualizer\""
par TargetNetwork.visualizer.queueVisualizer displayQueues false
par TargetNetwork.visualizer.queueVisualizer queueFilter "\"**\""
par TargetNetwork.visualizer.queueVisualizer color "\"blue\""
par TargetNetwork.visualizer.queueVisualizer width 8
par TargetNetwork.visualizer.queueVisualizer height 24
par TargetNetwork.visualizer.queueVisualizer spacing 2
par TargetNetwork.visualizer.queueVisualizer placementHint "\"right\""
par TargetNetwork.visualizer.queueVisualizer placementPriority 0
par TargetNetwork.visualizer.queueVisualizer zIndex 10
par TargetNetwork.visualizer.gateScheduleVisualizer typename "\"inet.visualizer.canvas.common.GateScheduleCanvasVisualizer\""
par TargetNetwork.visualizer.gateScheduleVisualizer visualizationTargetModule "\"^.^\""
par TargetNetwork.visualizer.gateScheduleVisualizer visualizationSubjectModule "\"^.^\""
par TargetNetwork.visualizer.gateScheduleVisualizer tags "\"\""
par TargetNetwork.visualizer.gateScheduleVisualizer networkNodeVisualizerModule "\"^.networkNodeVisualizer\""
par TargetNetwork.visualizer.gateScheduleVisualizer displayGateSchedules false
par TargetNetwork.visualizer.gateScheduleVisualizer labelFormat "\"%i %D\""
par TargetNetwork.visualizer.gateScheduleVisualizer gateFilter "\"**\""
par TargetNetwork.visualizer.gateScheduleVisualizer width 100
par TargetNetwork.visualizer.gateScheduleVisualizer height 8
par TargetNetwork.visualizer.gateScheduleVisualizer spacing 2
par TargetNetwork.visualizer.gateScheduleVisualizer placementHint "\"right\""
par TargetNetwork.visualizer.gateScheduleVisualizer placementPriority 0
par TargetNetwork.visualizer.gateScheduleVisualizer displayDuration 0s
attr mutable ""
attr unit s
par TargetNetwork.visualizer.gateScheduleVisualizer currentTimePosition 50
par TargetNetwork.visualizer.gateScheduleVisualizer zIndex 10
par TargetNetwork.visualizer.radioVisualizer typename "\"inet.visualizer.canvas.physicallayer.RadioCanvasVisualizer\""
par TargetNetwork.visualizer.radioVisualizer visualizationTargetModule "\"^.^\""
par TargetNetwork.visualizer.radioVisualizer visualizationSubjectModule "\"^.^\""
par TargetNetwork.visualizer.radioVisualizer tags "\"\""
par TargetNetwork.visualizer.radioVisualizer networkNodeVisualizerModule "\"^.networkNodeVisualizer\""
par TargetNetwork.visualizer.radioVisualizer displayRadios false
par TargetNetwork.visualizer.radioVisualizer displayRadioMode true
par TargetNetwork.visualizer.radioVisualizer displayReceptionState true
par TargetNetwork.visualizer.radioVisualizer displayTransmissionState true
par TargetNetwork.visualizer.radioVisualizer displayAntennaLobes false
par TargetNetwork.visualizer.radioVisualizer radioFilter "\"**\""
attr mutable ""
par TargetNetwork.visualizer.radioVisualizer radioModeImages "\"block/process_vs block/timer_vs block/wrx_vs block/wtx_vs block/wrxtx_vs block/cogwheel_vs\""
par TargetNetwork.visualizer.radioVisualizer receptionStateImages "\"- - misc/receiving misc/receiving\""
par TargetNetwork.visualizer.radioVisualizer transmissionStateImages "\"- - misc/transmitting\""
par TargetNetwork.visualizer.radioVisualizer width 16
par TargetNetwork.visualizer.radioVisualizer height 16
par TargetNetwork.visualizer.radioVisualizer placementHint "\"bottomRight\""
par TargetNetwork.visualizer.radioVisualizer placementPriority 0
par TargetNetwork.visualizer.radioVisualizer antennaLobeNormalize false
par TargetNetwork.visualizer.radioVisualizer antennaLobeRelativeLabels false
par TargetNetwork.visualizer.radioVisualizer antennaLobePlaneGlobal true
par TargetNetwork.visualizer.radioVisualizer antennaLobePlane "\"view\""
attr enum view,xy,xz,yz
par TargetNetwork.visualizer.radioVisualizer antennaLobeMode "\"logarithmic\""
attr enum logarithmic,linear
par TargetNetwork.visualizer.radioVisualizer antennaLobeLogarithmicBase 10
par TargetNetwork.visualizer.radioVisualizer antennaLobeLogarithmicScale 100
par TargetNetwork.visualizer.radioVisualizer antennaLobeRadius 100
par TargetNetwork.visualizer.radioVisualizer antennaLobeStep 10deg
attr unit deg
par TargetNetwork.visualizer.radioVisualizer antennaLobeOpacity 0.25
par TargetNetwork.visualizer.radioVisualizer antennaLobeLineSmooth true
par TargetNetwork.visualizer.radioVisualizer antennaLobeLineColor "\"black\""
par TargetNetwork.visualizer.radioVisualizer antennaLobeLineStyle "\"solid\""
par TargetNetwork.visualizer.radioVisualizer antennaLobeLineWidth 1
par TargetNetwork.visualizer.radioVisualizer antennaLobeFillColor "\"white\""
par TargetNetwork.visualizer.radioVisualizer zIndex 10
par TargetNetwork.visualizer.physicalLinkVisualizer typename "\"inet.visualizer.canvas.physicallayer.PhysicalLinkCanvasVisualizer\""
par TargetNetwork.visualizer.physicalLinkVisualizer visualizationTargetModule "\"^.^\""
par TargetNetwork.visualizer.physicalLinkVisualizer visualizationSubjectModule "\"^.^\""
par TargetNetwork.visualizer.physicalLinkVisualizer tags "\"\""
par TargetNetwork.visualizer.physicalLinkVisualizer displayLinks false
par TargetNetwork.visualizer.physicalLinkVisualizer activityLevel "\"service\""
attr enum service,peer,protocol
par TargetNetwork.visualizer.physicalLinkVisualizer nodeFilter "\"*\""
attr mutable ""
par TargetNetwork.visualizer.physicalLinkVisualizer interfaceFilter "\"*\""
attr mutable ""
par TargetNetwork.visualizer.physicalLinkVisualizer packetFilter "(omnetpp::cValueHolder)holder: \"*\""
attr mutable ""
par TargetNetwork.visualizer.physicalLinkVisualizer lineColor "\"olive\""
par TargetNetwork.visualizer.physicalLinkVisualizer lineStyle "\"dotted\""
par TargetNetwork.visualizer.physicalLinkVisualizer lineWidth 3
par TargetNetwork.visualizer.physicalLinkVisualizer lineShift 16
par TargetNetwork.visualizer.physicalLinkVisualizer lineShiftMode "\"normal\""
par TargetNetwork.visualizer.physicalLinkVisualizer lineContactSpacing 3
par TargetNetwork.visualizer.physicalLinkVisualizer lineContactMode "\"rectangular\""
attr enum circular,rectangular
par TargetNetwork.visualizer.physicalLinkVisualizer labelFormat "\"%n\""
par TargetNetwork.visualizer.physicalLinkVisualizer labelFont "\"<default>, 8px\""
par TargetNetwork.visualizer.physicalLinkVisualizer labelColor "\"olive\""
par TargetNetwork.visualizer.physicalLinkVisualizer fadeOutMode "\"realTime\""
attr enum realTime,animationTime,simulationTime
par TargetNetwork.visualizer.physicalLinkVisualizer fadeOutTime 1s
attr unit s
par TargetNetwork.visualizer.physicalLinkVisualizer fadeOutAnimationSpeed 0
[...]
par TargetNetwork.switch5.eth[6].phyLayer.phyHeaderChecker.out.channel typename "\"ned.IdealChannel\""
par TargetNetwork.switch5.eth[6].phyLayer.phyHeaderInserter typename "\"inet.physicallayer.wired.ethernet.EthernetPhyHeaderInserter\""
par TargetNetwork.switch5.eth[6].phyLayer.phyHeaderInserter displayStringTextFormat "\"processed %p pk (%l)\""
par TargetNetwork.switch5.eth[6].phyLayer.interFrameGapInserter typename "\"inet.protocolelement.common.InterpacketGapInserter\""
par TargetNetwork.switch5.eth[6].phyLayer.interFrameGapInserter displayStringTextFormat "\"delayed %p pk (%l)\\nifg: %g\""
par TargetNetwork.switch5.eth[6].phyLayer.interFrameGapInserter clockModule "\"\""
par TargetNetwork.switch5.eth[6].phyLayer.interFrameGapInserter initialChannelBusy false
par TargetNetwork.switch5.eth[6].phyLayer.interFrameGapInserter duration 96s/dropUnit(parent.bitrate)
attr unit s
par TargetNetwork.switch5.eth[6].phyLayer.outboundEmitter typename "\"inet.protocolelement.common.PacketEmitter\""
par TargetNetwork.switch5.eth[6].phyLayer.outboundEmitter displayStringTextFormat "\"processed %p pk (%l)\""
par TargetNetwork.switch5.eth[6].phyLayer.outboundEmitter packetFilter "(omnetpp::cValueHolder)holder: \"*\""
par TargetNetwork.switch5.eth[6].phyLayer.outboundEmitter direction "\"outbound\""
attr enum undefined,inbound,outbound
par TargetNetwork.switch5.eth[6].phyLayer.outboundEmitter signalName "\"packetSentToLower\""
par TargetNetwork.switch5.eth[6].phyLayer.transmitter typename "\"inet.protocolelement.transceiver.PacketTransmitter\""
par TargetNetwork.switch5.eth[6].phyLayer.transmitter displayStringTextFormat "\"processed %p pk (%l)\""
par TargetNetwork.switch5.eth[6].phyLayer.transmitter clockModule "\"\""
par TargetNetwork.switch5.eth[6].phyLayer.transmitter datarate this.bitrate
attr unit bps
scalar TargetNetwork.switch5.eth[6].phyLayer.transmitter propagationTime 0
par TargetNetwork.switch5.eth[6].phyLayer.phyHeaderChecker typename "\"inet.physicallayer.wired.ethernet.EthernetPhyHeaderChecker\""
par TargetNetwork.switch5.eth[6].phyLayer.phyHeaderChecker displayStringTextFormat "\"dropped %d/%p pk (%k/%l)\""
par TargetNetwork.switch5.eth[6].phyLayer.phyHeaderChecker backpressure false
par TargetNetwork.switch5.eth[6].phyLayer.inboundEmitter typename "\"inet.protocolelement.common.PacketEmitter\""
par TargetNetwork.switch5.eth[6].phyLayer.inboundEmitter displayStringTextFormat "\"processed %p pk (%l)\""
par TargetNetwork.switch5.eth[6].phyLayer.inboundEmitter packetFilter "(omnetpp::cValueHolder)holder: \"*\""
par TargetNetwork.switch5.eth[6].phyLayer.inboundEmitter direction "\"inbound\""
attr enum undefined,inbound,outbound
par TargetNetwork.switch5.eth[6].phyLayer.inboundEmitter signalName "\"packetReceivedFromLower\""
par TargetNetwork.switch5.eth[6].phyLayer.receiver typename "\"inet.protocolelement.transceiver.PacketReceiver\""
par TargetNetwork.switch5.eth[6].phyLayer.receiver displayStringTextFormat "\"processed %p pk (%l)\""
par TargetNetwork.switch5.eth[6].phyLayer.receiver datarate 1e+08bps
attr unit bps
par TargetNetwork.switch5.eth[6].phyLayer typename "\"inet.physicallayer.wired.ethernet.EthernetPhyLayer\""
par TargetNetwork.switch5.eth[6].phyLayer bitrate this.bitrate
attr unit bps
par TargetNetwork.switch5.eth[6] typename "\"inet.linklayer.ethernet.LayeredEthernetInterface\""
par TargetNetwork.switch5.eth[6] displayStringTextFormat "\"%a (%i)\\n%m\""
par TargetNetwork.switch5.eth[6] recordPcap false
par TargetNetwork.switch5.eth[6] numPcapRecorders 0
par TargetNetwork.switch5.eth[6] protocol "\"ethernetmac\""
par TargetNetwork.switch5.eth[6] broadcast true
par TargetNetwork.switch5.eth[6] multicast true
par TargetNetwork.switch5.eth[6] address "\"0A-AA-00-00-00-56\""
attr mutable ""
par TargetNetwork.switch5.eth[6] bitrate 1e+08bps
attr unit bps
par TargetNetwork.switch5.eth[6] mtu 1500B
attr unit B
par TargetNetwork.switch5.eth[6] interfaceTableModule "\"TargetNetwork.switch5.interfaceTable\""
par TargetNetwork.switch5.eth[7].phyLayer.lowerLayerOut.channel typename "\"ned.IdealChannel\""
par TargetNetwork.switch5.eth[7].phys$i.channel typename "\"ned.IdealChannel\""
par TargetNetwork.switch5.eth[7].upperLayerIn.channel typename "\"ned.IdealChannel\""
par TargetNetwork.switch5.eth[7].macLayer.upperLayerOut.channel typename "\"ned.IdealChannel\""
par TargetNetwork.switch5.eth[7].macLayer.upperLayerIn.channel typename "\"ned.IdealChannel\""
par TargetNetwork.switch5.eth[7].macLayer.outboundEmitter.out.channel typename "\"ned.IdealChannel\""
par TargetNetwork.switch5.eth[7].macLayer.lowerLayerIn.channel typename "\"ned.IdealChannel\""
par TargetNetwork.switch5.eth[7].macLayer.fcsChecker.out.channel typename "\"ned.IdealChannel\""
par TargetNetwork.switch5.eth[7].macLayer.queue typename "\"inet.queueing.queue.PacketQueue\""
par TargetNetwork.switch5.eth[7].macLayer.queue displayStringTextFormat "\"contains %p pk (%l) pushed %u\\npulled %o removed %r dropped %d\""
par TargetNetwork.switch5.eth[7].macLayer.queue packetCapacity 100
par TargetNetwork.switch5.eth[7].macLayer.queue dataCapacity -1b
attr unit b
par TargetNetwork.switch5.eth[7].macLayer.queue dropperClass "\"inet::queueing::PacketAtCollectionEndDropper\""
par TargetNetwork.switch5.eth[7].macLayer.queue comparatorClass "\"\""
par TargetNetwork.switch5.eth[7].macLayer.queue bufferModule "\"\""
par TargetNetwork.switch5.eth[7].macLayer.queue portName "\"\""
par TargetNetwork.switch5.eth[7].macLayer.server typename "\"inet.queueing.server.InstantServer\""
par TargetNetwork.switch5.eth[7].macLayer.server displayStringTextFormat "\"served %p pk (%l)\""
par TargetNetwork.switch5.eth[7].macLayer.server serveSchedulingPriority 0
par TargetNetwork.switch5.eth[7].macLayer.outboundEmitter typename "\"inet.protocolelement.common.PacketEmitter\""
par TargetNetwork.switch5.eth[7].macLayer.outboundEmitter displayStringTextFormat "\"processed %p pk (%l)\""
par TargetNetwork.switch5.eth[7].macLayer.outboundEmitter packetFilter "(omnetpp::cValueHolder)holder: \"*\""
par TargetNetwork.switch5.eth[7].macLayer.outboundEmitter direction "\"outbound\""
attr enum undefined,inbound,outbound
par TargetNetwork.switch5.eth[7].macLayer.outboundEmitter signalName "\"packetSentToLower\""
par TargetNetwork.switch5.eth[7].macLayer.fcsChecker typename "\"inet.linklayer.ethernet.modular.EthernetFcsChecker\""
par TargetNetwork.switch5.eth[7].macLayer.fcsChecker displayStringTextFormat "\"dropped %d/%p pk (%k/%l)\""
par TargetNetwork.switch5.eth[7].macLayer.fcsChecker backpressure false
par TargetNetwork.switch5.eth[7].macLayer.fcsChecker popFcs false
par TargetNetwork.switch5.eth[7].macLayer.inboundEmitter typename "\"inet.protocolelement.common.PacketEmitter\""
par TargetNetwork.switch5.eth[7].macLayer.inboundEmitter displayStringTextFormat "\"processed %p pk (%l)\""
par TargetNetwork.switch5.eth[7].macLayer.inboundEmitter packetFilter "(omnetpp::cValueHolder)holder: \"*\""
par TargetNetwork.switch5.eth[7].macLayer.inboundEmitter direction "\"inbound\""
attr enum undefined,inbound,outbound
par TargetNetwork.switch5.eth[7].macLayer.inboundEmitter signalName "\"packetReceivedFromLower\""
par TargetNetwork.switch5.eth[7].macLayer typename "\"inet.linklayer.ethernet.modular.EthernetMacLayer\""
par TargetNetwork.switch5.eth[7].macLayer bitrate 1e+08bps
attr unit bps
par TargetNetwork.switch5.eth[7].phyLayer.upperLayerIn.channel typename "\"ned.IdealChannel\""
par TargetNetwork.switch5.eth[7].phyLayer.transmitter.out.channel typename "\"ned.IdealChannel\""
par TargetNetwork.switch5.eth[7].phyLayer.lowerLayerIn.channel typename "\"ned.IdealChannel\""
par TargetNetwork.switch5.eth[7].phyLayer.phyHeaderChecker.out.channel typename "\"ned.IdealChannel\""
par TargetNetwork.switch5.eth[7].phyLayer.phyHeaderInserter typename "\"inet.physicallayer.wired.ethernet.EthernetPhyHeaderInserter\""
par TargetNetwork.switch5.eth[7].phyLayer.phyHeaderInserter displayStringTextFormat "\"processed %p pk (%l)\""
par TargetNetwork.switch5.eth[7].phyLayer.interFrameGapInserter typename "\"inet.protocolelement.common.InterpacketGapInserter\""
par TargetNetwork.switch5.eth[7].phyLayer.interFrameGapInserter displayStringTextFormat "\"delayed %p pk (%l)\\nifg: %g\""
par TargetNetwork.switch5.eth[7].phyLayer.interFrameGapInserter clockModule "\"\""
par TargetNetwork.switch5.eth[7].phyLayer.interFrameGapInserter initialChannelBusy false
par TargetNetwork.switch5.eth[7].phyLayer.interFrameGapInserter duration 96s/dropUnit(parent.bitrate)
attr unit s
par TargetNetwork.switch5.eth[7].phyLayer.outboundEmitter typename "\"inet.protocolelement.common.PacketEmitter\""
par TargetNetwork.switch5.eth[7].phyLayer.outboundEmitter displayStringTextFormat "\"processed %p pk (%l)\""
par TargetNetwork.switch5.eth[7].phyLayer.outboundEmitter packetFilter "(omnetpp::cValueHolder)holder: \"*\""
par TargetNetwork.switch5.eth[7].phyLayer.outboundEmitter direction "\"outbound\""
attr enum undefined,inbound,outbound
par TargetNetwork.switch5.eth[7].phyLayer.outboundEmitter signalName "\"packetSentToLower\""
par TargetNetwork.switch5.eth[7].phyLayer.transmitter typename "\"inet.protocolelement.transceiver.PacketTransmitter\""
par TargetNetwork.switch5.eth[7].phyLayer.transmitter displayStringTextFormat "\"processed %p pk (%l)\""
par TargetNetwork.switch5.eth[7].phyLayer.transmitter clockModule "\"\""
par TargetNetwork.switch5.eth[7].phyLayer.transmitter datarate this.bitrate
attr unit bps
scalar TargetNetwork.switch5.eth[7].phyLayer.transmitter propagationTime 0
par TargetNetwork.switch5.eth[7].phyLayer.phyHeaderChecker typename "\"inet.physicallayer.wired.ethernet.EthernetPhyHeaderChecker\""
par TargetNetwork.switch5.eth[7].phyLayer.phyHeaderChecker displayStringTextFormat "\"dropped %d/%p pk (%k/%l)\""
par TargetNetwork.switch5.eth[7].phyLayer.phyHeaderChecker backpressure false
par TargetNetwork.switch5.eth[7].phyLayer.inboundEmitter typename "\"inet.protocolelement.common.PacketEmitter\""
par TargetNetwork.switch5.eth[7].phyLayer.inboundEmitter displayStringTextFormat "\"processed %p pk (%l)\""
par TargetNetwork.switch5.eth[7].phyLayer.inboundEmitter packetFilter "(omnetpp::cValueHolder)holder: \"*\""
par TargetNetwork.switch5.eth[7].phyLayer.inboundEmitter direction "\"inbound\""
attr enum undefined,inbound,outbound
par TargetNetwork.switch5.eth[7].phyLayer.inboundEmitter signalName "\"packetReceivedFromLower\""
par TargetNetwork.switch5.eth[7].phyLayer.receiver typename "\"inet.protocolelement.transceiver.PacketReceiver\""
par TargetNetwork.switch5.eth[7].phyLayer.receiver displayStringTextFormat "\"processed %p pk (%l)\""
par TargetNetwork.switch5.eth[7].phyLayer.receiver datarate 1e+08bps
attr unit bps
par TargetNetwork.switch5.eth[7].phyLayer typename "\"inet.physicallayer.wired.ethernet.EthernetPhyLayer\""
par TargetNetwork.switch5.eth[7].phyLayer bitrate this.bitrate
attr unit bps
par TargetNetwork.switch5.eth[7] typename "\"inet.linklayer.ethernet.LayeredEthernetInterface\""
par TargetNetwork.switch5.eth[7] displayStringTextFormat "\"%a (%i)\\n%m\""
par TargetNetwork.switch5.eth[7] recordPcap false
par TargetNetwork.switch5.eth[7] numPcapRecorders 0
par TargetNetwork.switch5.eth[7] protocol "\"ethernetmac\""
par TargetNetwork.switch5.eth[7] broadcast true
par TargetNetwork.switch5.eth[7] multicast true
par TargetNetwork.switch5.eth[7] address "\"0A-AA-00-00-00-57\""
attr mutable ""
par TargetNetwork.switch5.eth[7] bitrate 1e+08bps
attr unit bps
par TargetNetwork.switch5.eth[7] mtu 1500B
attr unit B
par TargetNetwork.switch5.eth[7] interfaceTableModule "\"TargetNetwork.switch5.interfaceTable\""
par TargetNetwork.switch5.eth[8].phyLayer.lowerLayerOut.channel typename "\"ned.IdealChannel\""
par TargetNetwork.switch5.eth[8].phys$i.channel typename "\"ned.IdealChannel\""
par TargetNetwork.switch5.eth[8].upperLayerIn.channel typename "\"ned.IdealChannel\""
par TargetNetwork.switch5.eth[8].macLayer.upperLayerOut.channel typename "\"ned.IdealChannel\""
par TargetNetwork.switch5.eth[8].macLayer.upperLayerIn.channel typename "\"ned.IdealChannel\""
par TargetNetwork.switch5.eth[8].macLayer.outboundEmitter.out.channel typename "\"ned.IdealChannel\""
par TargetNetwork.switch5.eth[8].macLayer.lowerLayerIn.channel typename "\"ned.IdealChannel\""
par TargetNetwork.switch5.eth[8].macLayer.fcsChecker.out.channel typename "\"ned.IdealChannel\""
par TargetNetwork.switch5.eth[8].macLayer.queue typename "\"inet.queueing.queue.PacketQueue\""
par TargetNetwork.switch5.eth[8].macLayer.queue displayStringTextFormat "\"contains %p pk (%l) pushed %u\\npulled %o removed %r dropped %d\""
par TargetNetwork.switch5.eth[8].macLayer.queue packetCapacity 100
par TargetNetwork.switch5.eth[8].macLayer.queue dataCapacity -1b
attr unit b
par TargetNetwork.switch5.eth[8].macLayer.queue dropperClass "\"inet::queueing::PacketAtCollectionEndDropper\""
par TargetNetwork.switch5.eth[8].macLayer.queue comparatorClass "\"\""
par TargetNetwork.switch5.eth[8].macLayer.queue bufferModule "\"\""
par TargetNetwork.switch5.eth[8].macLayer.queue portName "\"\""
par TargetNetwork.switch5.eth[8].macLayer.server typename "\"inet.queueing.server.InstantServer\""
par TargetNetwork.switch5.eth[8].macLayer.server displayStringTextFormat "\"served %p pk (%l)\""
par TargetNetwork.switch5.eth[8].macLayer.server serveSchedulingPriority 0
par TargetNetwork.switch5.eth[8].macLayer.outboundEmitter typename "\"inet.protocolelement.common.PacketEmitter\""
par TargetNetwork.switch5.eth[8].macLayer.outboundEmitter displayStringTextFormat "\"processed %p pk (%l)\""
par TargetNetwork.switch5.eth[8].macLayer.outboundEmitter packetFilter "(omnetpp::cValueHolder)holder: \"*\""
par TargetNetwork.switch5.eth[8].macLayer.outboundEmitter direction "\"outbound\""
attr enum undefined,inbound,outbound
par TargetNetwork.switch5.eth[8].macLayer.outboundEmitter signalName "\"packetSentToLower\""
par TargetNetwork.switch5.eth[8].macLayer.fcsChecker typename "\"inet.linklayer.ethernet.modular.EthernetFcsChecker\""
par TargetNetwork.switch5.eth[8].macLayer.fcsChecker displayStringTextFormat "\"dropped %d/%p pk (%k/%l)\""
par TargetNetwork.switch5.eth[8].macLayer.fcsChecker backpressure false
par TargetNetwork.switch5.eth[8].macLayer.fcsChecker popFcs false
par TargetNetwork.switch5.eth[8].macLayer.inboundEmitter typename "\"inet.protocolelement.common.PacketEmitter\""
par TargetNetwork.switch5.eth[8].macLayer.inboundEmitter displayStringTextFormat "\"processed %p pk (%l)\""
par TargetNetwork.switch5.eth[8].macLayer.inboundEmitter packetFilter "(omnetpp::cValueHolder)holder: \"*\""
par TargetNetwork.switch5.eth[8].macLayer.inboundEmitter direction "\"inbound\""
attr enum undefined,inbound,outbound
par TargetNetwork.switch5.eth[8].macLayer.inboundEmitter signalName "\"packetReceivedFromLower\""
par TargetNetwork.switch5.eth[8].macLayer typename "\"inet.linklayer.ethernet.modular.EthernetMacLayer\""
par TargetNetwork.switch5.eth[8].macLayer bitrate 1e+08bps
attr unit bps
par TargetNetwork.switch5.eth[8].phyLayer.upperLayerIn.channel typename "\"ned.IdealChannel\""
par TargetNetwork.switch5.eth[8].phyLayer.transmitter.out.channel typename "\"ned.IdealChannel\""
par TargetNetwork.switch5.eth[8].phyLayer.lowerLayerIn.channel typename "\"ned.IdealChannel\""
par TargetNetwork.switch5.eth[8].phyLayer.phyHeaderChecker.out.channel typename "\"ned.IdealChannel\""
par TargetNetwork.switch5.eth[8].phyLayer.phyHeaderInserter typename "\"inet.physicallayer.wired.ethernet.EthernetPhyHeaderInserter\""
par TargetNetwork.switch5.eth[8].phyLayer.phyHeaderInserter displayStringTextFormat "\"processed %p pk (%l)\""
par TargetNetwork.switch5.eth[8].phyLayer.interFrameGapInserter typename "\"inet.protocolelement.common.InterpacketGapInserter\""
par TargetNetwork.switch5.eth[8].phyLayer.interFrameGapInserter displayStringTextFormat "\"delayed %p pk (%l)\\nifg: %g\""
par TargetNetwork.switch5.eth[8].phyLayer.interFrameGapInserter clockModule "\"\""
par TargetNetwork.switch5.eth[8].phyLayer.interFrameGapInserter initialChannelBusy false
par TargetNetwork.switch5.eth[8].phyLayer.interFrameGapInserter duration 96s/dropUnit(parent.bitrate)
attr unit s
par TargetNetwork.switch5.eth[8].phyLayer.outboundEmitter typename "\"inet.protocolelement.common.PacketEmitter\""
par TargetNetwork.switch5.eth[8].phyLayer.outboundEmitter displayStringTextFormat "\"processed %p pk (%l)\""
par TargetNetwork.switch5.eth[8].phyLayer.outboundEmitter packetFilter "(omnetpp::cValueHolder)holder: \"*\""
par TargetNetwork.switch5.eth[8].phyLayer.outboundEmitter direction "\"outbound\""
attr enum undefined,inbound,outbound
par TargetNetwork.switch5.eth[8].phyLayer.outboundEmitter signalName "\"packetSentToLower\""
par TargetNetwork.switch5.eth[8].phyLayer.transmitter typename "\"inet.protocolelement.transceiver.PacketTransmitter\""
par TargetNetwork.switch5.eth[8].phyLayer.transmitter displayStringTextFormat "\"processed %p pk (%l)\""
par TargetNetwork.switch5.eth[8].phyLayer.transmitter clockModule "\"\""
par TargetNetwork.switch5.eth[8].phyLayer.transmitter datarate this.bitrate
attr unit bps
scalar TargetNetwork.switch5.eth[8].phyLayer.transmitter propagationTime 0
par TargetNetwork.switch5.eth[8].phyLayer.phyHeaderChecker typename "\"inet.physicallayer.wired.ethernet.EthernetPhyHeaderChecker\""
par TargetNetwork.switch5.eth[8].phyLayer.phyHeaderChecker displayStringTextFormat "\"dropped %d/%p pk (%k/%l)\""
par TargetNetwork.switch5.eth[8].phyLayer.phyHeaderChecker backpressure false
par TargetNetwork.switch5.eth[8].phyLayer.inboundEmitter typename "\"inet.protocolelement.common.PacketEmitter\""
par TargetNetwork.switch5.eth[8].phyLayer.inboundEmitter displayStringTextFormat "\"processed %p pk (%l)\""
par TargetNetwork.switch5.eth[8].phyLayer.inboundEmitter packetFilter "(omnetpp::cValueHolder)holder: \"*\""
par TargetNetwork.switch5.eth[8].phyLayer.inboundEmitter direction "\"inbound\""
attr enum undefined,inbound,outbound
par TargetNetwork.switch5.eth[8].phyLayer.inboundEmitter signalName "\"packetReceivedFromLower\""
par TargetNetwork.switch5.eth[8].phyLayer.receiver typename "\"inet.protocolelement.transceiver.PacketReceiver\""
par TargetNetwork.switch5.eth[8].phyLayer.receiver displayStringTextFormat "\"processed %p pk (%l)\""
par TargetNetwork.switch5.eth[8].phyLayer.receiver datarate 1e+08bps
attr unit bps
par TargetNetwork.switch5.eth[8].phyLayer typename "\"inet.physicallayer.wired.ethernet.EthernetPhyLayer\""
par TargetNetwork.switch5.eth[8].phyLayer bitrate this.bitrate
attr unit bps
par TargetNetwork.switch5.eth[8] typename "\"inet.linklayer.ethernet.LayeredEthernetInterface\""
par TargetNetwork.switch5.eth[8] displayStringTextFormat "\"%a (%i)\\n%m\""
par TargetNetwork.switch5.eth[8] recordPcap false
par TargetNetwork.switch5.eth[8] numPcapRecorders 0
par TargetNetwork.switch5.eth[8] protocol "\"ethernetmac\""
par TargetNetwork.switch5.eth[8] broadcast true
par TargetNetwork.switch5.eth[8] multicast true
par TargetNetwork.switch5.eth[8] address "\"0A-AA-00-00-00-58\""
attr mutable ""
par TargetNetwork.switch5.eth[8] bitrate 1e+08bps
attr unit bps
par TargetNetwork.switch5.eth[8] mtu 1500B
attr unit B
par TargetNetwork.switch5.eth[8] interfaceTableModule "\"TargetNetwork.switch5.interfaceTable\""
par TargetNetwork.switch5 typename "\"inet.node.ethernet.EthernetSwitch\""
par TargetNetwork.switch5 recordPcap false
par TargetNetwork.switch5 numPcapRecorders 0
par TargetNetwork.switch5 numApps 0
par TargetNetwork.switch5 hasStatus false
par TargetNetwork.switch5 hasStp false
par TargetNetwork.switch5 hasGptp false
par TargetNetwork.switch5 hasCutthroughSwitching false
par TargetNetwork.switch5 fcsMode "\"declared\""
attr enum declared,computed
par TargetNetwork.switch5 spanningTreeProtocol "\"Stp\""
par TargetNetwork.switch5 numEthInterfaces 0
par TargetNetwork typename "\"TargetNetwork\""
par TargetNetwork recordPcap false
par TargetNetwork numPcapRecorders 0
par TargetNetwork hasGlobalArp true

