file 220405 1730273649                                          
version 3
run General-0-20241030-15:34:09-20048
attr configname General
attr datetime 20241030-15:34:09
attr datetimef 20241030-153409
attr experiment General
attr inifile "D:\\jobSimQt\\project/Parameters.ini"
attr iterationvars ""
attr iterationvarsd ""
attr iterationvarsf ""
attr measurement ""
attr network TargetNetwork
attr processid 20048
attr repetition 0
attr replication #0
attr resultdir results
attr runnumber 0
attr seedset 0
config network TargetNetwork
config sim-time-limit 1.0s
config *.configurator.config "xml(\"<config><interface hosts='**' address='192.x.x.x' netmask='255.x.x.x'/></config>\")"
config *.dds_cpu.numApps 1
config *.dds_cpu.app[0].typename DDSPublishApp
config *.dds_cpu.app[0].io.receiveBroadcast true
config *.dds_cpu.ipv4.ip.limitedBroadcast true
config *.dds_cpu.app[0].sink.typename ""
config *.dds_cpu.app[0].io.publish "\"Topic1\""
config *.dds_cpu.app[0].io.destPort 1000
config *.dds_cpu.app[0].source.packetLength 5000B
config *.dds_cpu.app[0].source.productionInterval exponential(200ms)
config *.dds_cpu2.numApps 1
config *.dds_cpu2.app[0].typename DDSPublishApp
config *.dds_cpu2.app[0].io.receiveBroadcast true
config *.dds_cpu2.ipv4.ip.limitedBroadcast true
config *.dds_cpu2.app[0].sink.typename ""
config *.dds_cpu2.app[0].io.publish "\"Topic2\""
config *.dds_cpu2.app[0].io.destPort 1001
config *.dds_cpu2.app[0].source.packetLength 1000B
config *.dds_cpu2.app[0].source.productionInterval exponential(200ms)
config *.dds_cpu3.numApps 1
config *.dds_cpu3.app[0].typename DDSSubscribeApp
config *.dds_cpu3.app[0].io.localPort 1000
config *.dds_cpu3.app[0].source.subscribe "\"Topic1@1000\""
config *.dds_cpu3.app[0].source.packetLength 20B
config *.dds_cpu3.ipv4.ip.limitedBroadcast true
config *.dds_cpu3.app[0].sink.flowName "\"default1\""
config *.dds_cpu4.numApps 1
config *.dds_cpu4.app[0].typename DDSSubscribeApp
config *.dds_cpu4.app[0].io.localPort 1001
config *.dds_cpu4.app[0].source.subscribe "\"Topic2@1001\""
config *.dds_cpu4.app[0].source.packetLength 20B
config *.dds_cpu4.ipv4.ip.limitedBroadcast true
config *.dds_cpu4.app[0].sink.flowName "\"default2\""
config *.dds_cpu5.numApps 1
config *.dds_cpu5.app[0].typename DDSSubscribeApp
config *.dds_cpu5.app[0].io.localPort 1001
config *.dds_cpu5.app[0].source.subscribe "\"Topic2@1001\""
config *.dds_cpu5.app[0].source.packetLength 20B
config *.dds_cpu5.ipv4.ip.limitedBroadcast true
config *.dds_cpu5.app[0].sink.flowName "\"default3\""
config *.dds_switch.ethernet.typename EthernetLayer
config *.dds_switch.eth[*].typename LayeredEthernetInterface
config *.dds_switch.eth[*].bitrate 100Mbps
config *.dds_switch2.ethernet.typename EthernetLayer
config *.dds_switch2.eth[*].typename LayeredEthernetInterface
config *.dds_switch2.eth[*].bitrate 100Mbps

vector 0 TargetNetwork.dds_cpu.udp passedUpPk:vector(count) ETV
attr interpolationmode none
attr recordingmode vector(count)
attr source packetSentToUpper
attr title "packets passed up, count"
vector 1 TargetNetwork.dds_cpu.udp droppedPkWrongPort:vector(count) ETV
attr interpolationmode none
attr recordingmode vector(count)
attr source packetDropReasonIsNoPortFound(packetDropped)
attr title "packets dropped (wrong port), count"
vector 2 TargetNetwork.dds_cpu.udp droppedPkBadChecksum:vector(count) ETV
attr interpolationmode none
attr recordingmode vector(count)
attr source packetDropReasonIsIncorrectlyReceived(packetDropped)
attr title "packets dropped (checksum error), count"
vector 3 TargetNetwork.dds_cpu2.udp passedUpPk:vector(count) ETV
attr interpolationmode none
attr recordingmode vector(count)
attr source packetSentToUpper
attr title "packets passed up, count"
vector 4 TargetNetwork.dds_cpu2.udp droppedPkWrongPort:vector(count) ETV
attr interpolationmode none
attr recordingmode vector(count)
attr source packetDropReasonIsNoPortFound(packetDropped)
attr title "packets dropped (wrong port), count"
vector 5 TargetNetwork.dds_cpu2.udp droppedPkBadChecksum:vector(count) ETV
attr interpolationmode none
attr recordingmode vector(count)
attr source packetDropReasonIsIncorrectlyReceived(packetDropped)
attr title "packets dropped (checksum error), count"
vector 6 TargetNetwork.dds_cpu3.udp passedUpPk:vector(count) ETV
attr interpolationmode none
attr recordingmode vector(count)
attr source packetSentToUpper
attr title "packets passed up, count"
vector 7 TargetNetwork.dds_cpu3.udp droppedPkWrongPort:vector(count) ETV
attr interpolationmode none
attr recordingmode vector(count)
attr source packetDropReasonIsNoPortFound(packetDropped)
attr title "packets dropped (wrong port), count"
vector 8 TargetNetwork.dds_cpu3.udp droppedPkBadChecksum:vector(count) ETV
attr interpolationmode none
attr recordingmode vector(count)
attr source packetDropReasonIsIncorrectlyReceived(packetDropped)
attr title "packets dropped (checksum error), count"
vector 9 TargetNetwork.dds_cpu4.udp passedUpPk:vector(count) ETV
attr interpolationmode none
attr recordingmode vector(count)
attr source packetSentToUpper
attr title "packets passed up, count"
vector 10 TargetNetwork.dds_cpu4.udp droppedPkWrongPort:vector(count) ETV
attr interpolationmode none
attr recordingmode vector(count)
attr source packetDropReasonIsNoPortFound(packetDropped)
attr title "packets dropped (wrong port), count"
vector 11 TargetNetwork.dds_cpu4.udp droppedPkBadChecksum:vector(count) ETV
attr interpolationmode none
attr recordingmode vector(count)
attr source packetDropReasonIsIncorrectlyReceived(packetDropped)
attr title "packets dropped (checksum error), count"
vector 12 TargetNetwork.dds_cpu5.udp passedUpPk:vector(count) ETV
attr interpolationmode none
attr recordingmode vector(count)
attr source packetSentToUpper
attr title "packets passed up, count"
vector 13 TargetNetwork.dds_cpu5.udp droppedPkWrongPort:vector(count) ETV
attr interpolationmode none
attr recordingmode vector(count)
attr source packetDropReasonIsNoPortFound(packetDropped)
attr title "packets dropped (wrong port), count"
vector 14 TargetNetwork.dds_cpu5.udp droppedPkBadChecksum:vector(count) ETV
attr interpolationmode none
attr recordingmode vector(count)
attr source packetDropReasonIsIncorrectlyReceived(packetDropped)
attr title "packets dropped (checksum error), count"
vector 15 TargetNetwork.dds_switch.eth[0].phyLayer.interFrameGapInserter interpacketGap:vector ETV
attr interpolationmode sample-hold
attr recordingmode vector
attr source "count(interpacketGapStarted) - count(interpacketGapEnded)"
attr title "interpacket gap state"
attr type int
vector 16 TargetNetwork.dds_switch.eth[0].phyLayer.transmitter transmitting:vector ETV
attr interpolationmode sample-hold
attr recordingmode vector
attr source "count(transmissionStarted) - count(transmissionEnded)"
attr title "transmitting state"
attr type int
vector 17 TargetNetwork.dds_switch.eth[1].phyLayer.interFrameGapInserter interpacketGap:vector ETV
attr interpolationmode sample-hold
attr recordingmode vector
attr source "count(interpacketGapStarted) - count(interpacketGapEnded)"
attr title "interpacket gap state"
attr type int
vector 18 TargetNetwork.dds_switch.eth[1].phyLayer.transmitter transmitting:vector ETV
attr interpolationmode sample-hold
attr recordingmode vector
attr source "count(transmissionStarted) - count(transmissionEnded)"
attr title "transmitting state"
attr type int
vector 19 TargetNetwork.dds_switch.eth[2].phyLayer.interFrameGapInserter interpacketGap:vector ETV
attr interpolationmode sample-hold
attr recordingmode vector
attr source "count(interpacketGapStarted) - count(interpacketGapEnded)"
attr title "interpacket gap state"
attr type int
vector 20 TargetNetwork.dds_switch.eth[2].phyLayer.transmitter transmitting:vector ETV
attr interpolationmode sample-hold
attr recordingmode vector
attr source "count(transmissionStarted) - count(transmissionEnded)"
attr title "transmitting state"
attr type int
vector 21 TargetNetwork.dds_switch.eth[3].phyLayer.interFrameGapInserter interpacketGap:vector ETV
attr interpolationmode sample-hold
attr recordingmode vector
attr source "count(interpacketGapStarted) - count(interpacketGapEnded)"
attr title "interpacket gap state"
attr type int
vector 22 TargetNetwork.dds_switch.eth[3].phyLayer.transmitter transmitting:vector ETV
attr interpolationmode sample-hold
attr recordingmode vector
attr source "count(transmissionStarted) - count(transmissionEnded)"
attr title "transmitting state"
attr type int
vector 23 TargetNetwork.dds_switch2.eth[0].phyLayer.interFrameGapInserter interpacketGap:vector ETV
attr interpolationmode sample-hold
attr recordingmode vector
attr source "count(interpacketGapStarted) - count(interpacketGapEnded)"
attr title "interpacket gap state"
attr type int
vector 24 TargetNetwork.dds_switch2.eth[0].phyLayer.transmitter transmitting:vector ETV
attr interpolationmode sample-hold
attr recordingmode vector
attr source "count(transmissionStarted) - count(transmissionEnded)"
attr title "transmitting state"
attr type int
vector 25 TargetNetwork.dds_switch2.eth[1].phyLayer.interFrameGapInserter interpacketGap:vector ETV
attr interpolationmode sample-hold
attr recordingmode vector
attr source "count(interpacketGapStarted) - count(interpacketGapEnded)"
attr title "interpacket gap state"
attr type int
vector 26 TargetNetwork.dds_switch2.eth[1].phyLayer.transmitter transmitting:vector ETV
attr interpolationmode sample-hold
attr recordingmode vector
attr source "count(transmissionStarted) - count(transmissionEnded)"
attr title "transmitting state"
attr type int
vector 27 TargetNetwork.dds_switch2.eth[2].phyLayer.interFrameGapInserter interpacketGap:vector ETV
attr interpolationmode sample-hold
attr recordingmode vector
attr source "count(interpacketGapStarted) - count(interpacketGapEnded)"
attr title "interpacket gap state"
attr type int
vector 28 TargetNetwork.dds_switch2.eth[2].phyLayer.transmitter transmitting:vector ETV
attr interpolationmode sample-hold
attr recordingmode vector
attr source "count(transmissionStarted) - count(transmissionEnded)"
attr title "transmitting state"
attr type int
vector 29 TargetNetwork.dds_switch2.eth[3].phyLayer.interFrameGapInserter interpacketGap:vector ETV
attr interpolationmode sample-hold
attr recordingmode vector
attr source "count(interpacketGapStarted) - count(interpacketGapEnded)"
attr title "interpacket gap state"
attr type int
vector 30 TargetNetwork.dds_switch2.eth[3].phyLayer.transmitter transmitting:vector ETV
attr interpolationmode sample-hold
attr recordingmode vector
attr source "count(transmissionStarted) - count(transmissionEnded)"
attr title "transmitting state"
attr type int
vector 31 TargetNetwork.dds_cpu.app[0].source packetLengths:vector ETV
attr interpolationmode none
attr recordingmode vector
attr source packetLength(packetPushed)
attr title "packet lengths"
attr unit b
vector 32 TargetNetwork.dds_cpu2.app[0].source packetLengths:vector ETV
attr interpolationmode none
attr recordingmode vector
attr source packetLength(packetPushed)
attr title "packet lengths"
attr unit b
vector 33 TargetNetwork.dds_cpu3.app[0].source packetLengths:vector ETV
attr interpolationmode none
attr recordingmode vector
attr source packetLength(packetPushed)
attr title "packet lengths"
attr unit b
vector 34 TargetNetwork.dds_cpu4.app[0].source packetLengths:vector ETV
attr interpolationmode none
attr recordingmode vector
attr source packetLength(packetPushed)
attr title "packet lengths"
attr unit b
vector 35 TargetNetwork.dds_cpu5.app[0].source packetLengths:vector ETV
attr interpolationmode none
attr recordingmode vector
attr source packetLength(packetPushed)
attr title "packet lengths"
attr unit b
vector 36 TargetNetwork.dds_cpu.app[0].io packetSent:vector(packetBytes) ETV
attr interpolationmode none
attr recordingmode vector(packetBytes)
attr source packetSent
attr title "packets sent, packetBytes"
vector 37 TargetNetwork.dds_cpu2.app[0].io packetSent:vector(packetBytes) ETV
attr interpolationmode none
attr recordingmode vector(packetBytes)
attr source packetSent
attr title "packets sent, packetBytes"
vector 38 TargetNetwork.dds_cpu3.udp packetSent:vector(packetBytes) ETV
attr interpolationmode none
attr recordingmode vector(packetBytes)
attr source packetSent
attr title "packets sent, packetBytes"
vector 39 TargetNetwork.dds_cpu4.udp packetSent:vector(packetBytes) ETV
attr interpolationmode none
attr recordingmode vector(packetBytes)
attr source packetSent
attr title "packets sent, packetBytes"
vector 40 TargetNetwork.dds_cpu5.udp packetSent:vector(packetBytes) ETV
attr interpolationmode none
attr recordingmode vector(packetBytes)
attr source packetSent
attr title "packets sent, packetBytes"
vector 41 TargetNetwork.dds_cpu3.lo[0].lo rcvdPkFromHl:vector(packetBytes) ETV
attr interpolationmode none
attr recordingmode vector(packetBytes)
attr source packetReceivedFromUpper
attr title "packets received from higher layer, packetBytes"
vector 42 TargetNetwork.dds_cpu3.lo[0].lo passedUpPk:vector(packetBytes) ETV
attr interpolationmode none
attr recordingmode vector(packetBytes)
attr source packetSentToUpper
attr title "packets passed to higher layer, packetBytes"
vector 43 TargetNetwork.dds_cpu3.ethernet encapPk:vector(packetBytes) ETV
attr interpolationmode none
attr recordingmode vector(packetBytes)
attr source encapPk
attr title "packets encapsulated, packetBytes"
vector 44 TargetNetwork.dds_cpu4.lo[0].lo rcvdPkFromHl:vector(packetBytes) ETV
attr interpolationmode none
attr recordingmode vector(packetBytes)
attr source packetReceivedFromUpper
attr title "packets received from higher layer, packetBytes"
vector 45 TargetNetwork.dds_cpu4.lo[0].lo passedUpPk:vector(packetBytes) ETV
attr interpolationmode none
attr recordingmode vector(packetBytes)
attr source packetSentToUpper
attr title "packets passed to higher layer, packetBytes"
vector 46 TargetNetwork.dds_cpu4.ethernet encapPk:vector(packetBytes) ETV
attr interpolationmode none
attr recordingmode vector(packetBytes)
attr source encapPk
attr title "packets encapsulated, packetBytes"
vector 47 TargetNetwork.dds_cpu5.lo[0].lo rcvdPkFromHl:vector(packetBytes) ETV
attr interpolationmode none
attr recordingmode vector(packetBytes)
attr source packetReceivedFromUpper
attr title "packets received from higher layer, packetBytes"
vector 48 TargetNetwork.dds_cpu5.lo[0].lo passedUpPk:vector(packetBytes) ETV
attr interpolationmode none
attr recordingmode vector(packetBytes)
attr source packetSentToUpper
attr title "packets passed to higher layer, packetBytes"
vector 49 TargetNetwork.dds_cpu5.ethernet encapPk:vector(packetBytes) ETV
attr interpolationmode none
attr recordingmode vector(packetBytes)
attr source encapPk
attr title "packets encapsulated, packetBytes"
vector 50 TargetNetwork.dds_cpu3.eth[0].queue incomingPacketLengths:vector ETV
attr interpolationmode none
attr recordingmode vector
attr source packetLength(packetPushStarted)
attr title "incoming packet lengths"
attr unit b
vector 51 TargetNetwork.dds_cpu3.eth[0].queue _port2 ETV
vector 52 TargetNetwork.dds_cpu3.eth[0].queue queueingTime:vector ETV
attr interpolationmode none
attr recordingmode vector
attr source queueingTime(packetPulled)
attr title "queueing times"
attr unit s
vector 53 TargetNetwork.dds_cpu3.eth[0].queue outgoingPacketLengths:vector ETV
attr interpolationmode none
attr recordingmode vector
attr source packetLength(packetPulled)
attr title "outgoing packet lengths"
attr unit b
vector 54 TargetNetwork.dds_cpu3.eth[0].mac packetReceivedFromUpper:vector(packetBytes) ETV
attr interpolationmode none
attr recordingmode vector(packetBytes)
attr source packetReceivedFromUpper
attr title "packet bytes from higher layer, packetBytes"
vector 55 TargetNetwork.dds_cpu3.eth[0].queue queueLength:vector ETV
attr autoWarmupFilter false
attr interpolationmode sample-hold
attr recordingmode vector
attr source "warmup(atomic(constant0(packetPushEnded) + count(packetPushStarted) - count(packetPulled) - count(packetRemoved) - count(packetDropped)))"
attr title "queue length"
attr unit pk
vector 56 TargetNetwork.dds_cpu3.eth[0].queue queueBitLength:vector ETV
attr autoWarmupFilter false
attr interpolationmode sample-hold
attr recordingmode vector
attr source "warmup(atomic(constant0(packetPushEnded) + sum(packetLength(packetPushStarted)) - sum(packetLength(packetPulled)) - sum(packetLength(packetRemoved)) - sum(packetLength(packetDropped))))"
attr title "queue bit length"
attr unit b
vector 57 TargetNetwork.dds_cpu3.eth[1].queue incomingPacketLengths:vector ETV
attr interpolationmode none
attr recordingmode vector
attr source packetLength(packetPushStarted)
attr title "incoming packet lengths"
attr unit b
vector 58 TargetNetwork.dds_cpu3.eth[1].queue _port3 ETV
vector 59 TargetNetwork.dds_cpu3.eth[1].queue queueingTime:vector ETV
attr interpolationmode none
attr recordingmode vector
attr source queueingTime(packetPulled)
attr title "queueing times"
attr unit s
vector 60 TargetNetwork.dds_cpu3.eth[1].queue outgoingPacketLengths:vector ETV
attr interpolationmode none
attr recordingmode vector
attr source packetLength(packetPulled)
attr title "outgoing packet lengths"
attr unit b
vector 61 TargetNetwork.dds_cpu3.eth[1].mac packetReceivedFromUpper:vector(packetBytes) ETV
attr interpolationmode none
attr recordingmode vector(packetBytes)
attr source packetReceivedFromUpper
attr title "packet bytes from higher layer, packetBytes"
vector 62 TargetNetwork.dds_cpu3.eth[1].queue queueLength:vector ETV
attr autoWarmupFilter false
attr interpolationmode sample-hold
attr recordingmode vector
attr source "warmup(atomic(constant0(packetPushEnded) + count(packetPushStarted) - count(packetPulled) - count(packetRemoved) - count(packetDropped)))"
attr title "queue length"
attr unit pk
vector 63 TargetNetwork.dds_cpu3.eth[1].queue queueBitLength:vector ETV
attr autoWarmupFilter false
attr interpolationmode sample-hold
attr recordingmode vector
attr source "warmup(atomic(constant0(packetPushEnded) + sum(packetLength(packetPushStarted)) - sum(packetLength(packetPulled)) - sum(packetLength(packetRemoved)) - sum(packetLength(packetDropped))))"
attr title "queue bit length"
attr unit b
vector 64 TargetNetwork.dds_cpu4.eth[0].queue incomingPacketLengths:vector ETV
attr interpolationmode none
attr recordingmode vector
attr source packetLength(packetPushStarted)
attr title "incoming packet lengths"
attr unit b
vector 65 TargetNetwork.dds_cpu4.eth[0].queue _port4 ETV
vector 66 TargetNetwork.dds_cpu4.eth[0].queue queueingTime:vector ETV
attr interpolationmode none
attr recordingmode vector
attr source queueingTime(packetPulled)
attr title "queueing times"
attr unit s
vector 67 TargetNetwork.dds_cpu4.eth[0].queue outgoingPacketLengths:vector ETV
attr interpolationmode none
attr recordingmode vector
attr source packetLength(packetPulled)
attr title "outgoing packet lengths"
attr unit b
vector 68 TargetNetwork.dds_cpu4.eth[0].mac packetReceivedFromUpper:vector(packetBytes) ETV
attr interpolationmode none
attr recordingmode vector(packetBytes)
attr source packetReceivedFromUpper
attr title "packet bytes from higher layer, packetBytes"
vector 69 TargetNetwork.dds_cpu4.eth[0].queue queueLength:vector ETV
attr autoWarmupFilter false
attr interpolationmode sample-hold
attr recordingmode vector
attr source "warmup(atomic(constant0(packetPushEnded) + count(packetPushStarted) - count(packetPulled) - count(packetRemoved) - count(packetDropped)))"
attr title "queue length"
attr unit pk
vector 70 TargetNetwork.dds_cpu4.eth[0].queue queueBitLength:vector ETV
attr autoWarmupFilter false
attr interpolationmode sample-hold
attr recordingmode vector
attr source "warmup(atomic(constant0(packetPushEnded) + sum(packetLength(packetPushStarted)) - sum(packetLength(packetPulled)) - sum(packetLength(packetRemoved)) - sum(packetLength(packetDropped))))"
attr title "queue bit length"
attr unit b
vector 71 TargetNetwork.dds_cpu4.eth[1].queue incomingPacketLengths:vector ETV
attr interpolationmode none
attr recordingmode vector
attr source packetLength(packetPushStarted)
attr title "incoming packet lengths"
attr unit b
vector 72 TargetNetwork.dds_cpu4.eth[1].queue _port5 ETV
vector 73 TargetNetwork.dds_cpu4.eth[1].queue queueingTime:vector ETV
attr interpolationmode none
attr recordingmode vector
attr source queueingTime(packetPulled)
attr title "queueing times"
attr unit s
vector 74 TargetNetwork.dds_cpu4.eth[1].queue outgoingPacketLengths:vector ETV
attr interpolationmode none
attr recordingmode vector
attr source packetLength(packetPulled)
attr title "outgoing packet lengths"
attr unit b
vector 75 TargetNetwork.dds_cpu4.eth[1].mac packetReceivedFromUpper:vector(packetBytes) ETV
attr interpolationmode none
attr recordingmode vector(packetBytes)
attr source packetReceivedFromUpper
attr title "packet bytes from higher layer, packetBytes"
vector 76 TargetNetwork.dds_cpu4.eth[1].queue queueLength:vector ETV
attr autoWarmupFilter false
attr interpolationmode sample-hold
attr recordingmode vector
attr source "warmup(atomic(constant0(packetPushEnded) + count(packetPushStarted) - count(packetPulled) - count(packetRemoved) - count(packetDropped)))"
attr title "queue length"
attr unit pk
vector 77 TargetNetwork.dds_cpu4.eth[1].queue queueBitLength:vector ETV
attr autoWarmupFilter false
attr interpolationmode sample-hold
attr recordingmode vector
attr source "warmup(atomic(constant0(packetPushEnded) + sum(packetLength(packetPushStarted)) - sum(packetLength(packetPulled)) - sum(packetLength(packetRemoved)) - sum(packetLength(packetDropped))))"
attr title "queue bit length"
attr unit b
vector 78 TargetNetwork.dds_cpu5.eth[0].queue incomingPacketLengths:vector ETV
attr interpolationmode none
attr recordingmode vector
attr source packetLength(packetPushStarted)
attr title "incoming packet lengths"
attr unit b
vector 79 TargetNetwork.dds_cpu5.eth[0].queue _port6 ETV
vector 80 TargetNetwork.dds_cpu5.eth[0].queue queueingTime:vector ETV
attr interpolationmode none
attr recordingmode vector
attr source queueingTime(packetPulled)
attr title "queueing times"
attr unit s
vector 81 TargetNetwork.dds_cpu5.eth[0].queue outgoingPacketLengths:vector ETV
attr interpolationmode none
attr recordingmode vector
attr source packetLength(packetPulled)
attr title "outgoing packet lengths"
attr unit b
vector 82 TargetNetwork.dds_cpu5.eth[0].mac packetReceivedFromUpper:vector(packetBytes) ETV
attr interpolationmode none
attr recordingmode vector(packetBytes)
attr source packetReceivedFromUpper
attr title "packet bytes from higher layer, packetBytes"
vector 83 TargetNetwork.dds_cpu5.eth[0].queue queueLength:vector ETV
attr autoWarmupFilter false
attr interpolationmode sample-hold
attr recordingmode vector
attr source "warmup(atomic(constant0(packetPushEnded) + count(packetPushStarted) - count(packetPulled) - count(packetRemoved) - count(packetDropped)))"
attr title "queue length"
attr unit pk
vector 84 TargetNetwork.dds_cpu5.eth[0].queue queueBitLength:vector ETV
attr autoWarmupFilter false
attr interpolationmode sample-hold
attr recordingmode vector
attr source "warmup(atomic(constant0(packetPushEnded) + sum(packetLength(packetPushStarted)) - sum(packetLength(packetPulled)) - sum(packetLength(packetRemoved)) - sum(packetLength(packetDropped))))"
attr title "queue bit length"
attr unit b
vector 85 TargetNetwork.dds_cpu5.eth[1].queue incomingPacketLengths:vector ETV
attr interpolationmode none
attr recordingmode vector
attr source packetLength(packetPushStarted)
attr title "incoming packet lengths"
attr unit b
vector 86 TargetNetwork.dds_cpu5.eth[1].queue _port7 ETV
vector 87 TargetNetwork.dds_cpu5.eth[1].queue queueingTime:vector ETV
attr interpolationmode none
attr recordingmode vector
attr source queueingTime(packetPulled)
attr title "queueing times"
attr unit s
vector 88 TargetNetwork.dds_cpu5.eth[1].queue outgoingPacketLengths:vector ETV
attr interpolationmode none
attr recordingmode vector
attr source packetLength(packetPulled)
attr title "outgoing packet lengths"
attr unit b
vector 89 TargetNetwork.dds_cpu5.eth[1].mac packetReceivedFromUpper:vector(packetBytes) ETV
attr interpolationmode none
attr recordingmode vector(packetBytes)
attr source packetReceivedFromUpper
attr title "packet bytes from higher layer, packetBytes"
vector 90 TargetNetwork.dds_cpu5.eth[1].queue queueLength:vector ETV
attr autoWarmupFilter false
attr interpolationmode sample-hold
attr recordingmode vector
attr source "warmup(atomic(constant0(packetPushEnded) + count(packetPushStarted) - count(packetPulled) - count(packetRemoved) - count(packetDropped)))"
attr title "queue length"
attr unit pk
vector 91 TargetNetwork.dds_cpu5.eth[1].queue queueBitLength:vector ETV
attr autoWarmupFilter false
attr interpolationmode sample-hold
attr recordingmode vector
attr source "warmup(atomic(constant0(packetPushEnded) + sum(packetLength(packetPushStarted)) - sum(packetLength(packetPulled)) - sum(packetLength(packetRemoved)) - sum(packetLength(packetDropped))))"
attr title "queue bit length"
attr unit b
vector 92 TargetNetwork.dds_cpu3.udp packetReceived:vector(packetBytes) ETV
attr interpolationmode none
attr recordingmode vector(packetBytes)
attr source packetReceived
attr title "packets received, packetBytes"
vector 93 TargetNetwork.dds_cpu4.udp packetReceived:vector(packetBytes) ETV
attr interpolationmode none
attr recordingmode vector(packetBytes)
attr source packetReceived
attr title "packets received, packetBytes"
vector 94 TargetNetwork.dds_cpu5.udp packetReceived:vector(packetBytes) ETV
attr interpolationmode none
attr recordingmode vector(packetBytes)
attr source packetReceived
attr title "packets received, packetBytes"
vector 95 TargetNetwork.dds_switch.eth[1].phyLayer.receiver receptionTime:vector ETV
attr interpolationmode none
attr recordingmode vector
attr source packetDuration(receptionEnded)
attr title "reception time"
attr unit s
vector 96 TargetNetwork.dds_switch.eth[1].phyLayer.inboundEmitter incomingPacketLengths:vector ETV
attr interpolationmode none
attr recordingmode vector
attr source "packetLength(merge(packetPushedIn, packetPulledIn))"
attr title "incoming packet lengths"
attr unit b
vector 97 TargetNetwork.dds_switch.eth[1].phyLayer.inboundEmitter outgoingPacketLengths:vector ETV
attr interpolationmode none
attr recordingmode vector
attr source "packetLength(merge(packetPushedOut, packetPulledOut))"
attr title "outgoing packet lengths"
attr unit b
vector 98 TargetNetwork.dds_switch.eth[1].phyLayer.phyHeaderChecker incomingPacketLengths:vector ETV
attr interpolationmode none
attr recordingmode vector
attr source "packetLength(merge(packetPushedIn, packetPulledIn))"
attr title "incoming packet lengths"
attr unit b
vector 99 TargetNetwork.dds_switch.eth[1].phyLayer.phyHeaderChecker outgoingPacketLengths:vector ETV
attr interpolationmode none
attr recordingmode vector
attr source "packetLength(merge(packetPushedOut, packetPulledOut))"
attr title "outgoing packet lengths"
attr unit b
vector 100 TargetNetwork.dds_switch.eth[1].macLayer.inboundEmitter incomingPacketLengths:vector ETV
attr interpolationmode none
attr recordingmode vector
attr source "packetLength(merge(packetPushedIn, packetPulledIn))"
attr title "incoming packet lengths"
attr unit b
vector 101 TargetNetwork.dds_switch.eth[1].macLayer.inboundEmitter outgoingPacketLengths:vector ETV
attr interpolationmode none
attr recordingmode vector
attr source "packetLength(merge(packetPushedOut, packetPulledOut))"
attr title "outgoing packet lengths"
attr unit b
vector 102 TargetNetwork.dds_switch.eth[1].macLayer.fcsChecker incomingPacketLengths:vector ETV
attr interpolationmode none
attr recordingmode vector
attr source "packetLength(merge(packetPushedIn, packetPulledIn))"
attr title "incoming packet lengths"
attr unit b
vector 103 TargetNetwork.dds_switch.eth[1].macLayer.fcsChecker outgoingPacketLengths:vector ETV
attr interpolationmode none
attr recordingmode vector
attr source "packetLength(merge(packetPushedOut, packetPulledOut))"
attr title "outgoing packet lengths"
attr unit b
vector 104 TargetNetwork.dds_switch.ethernet.fcsChecker incomingPacketLengths:vector ETV
attr interpolationmode none
attr recordingmode vector
attr source "packetLength(merge(packetPushedIn, packetPulledIn))"
attr title "incoming packet lengths"
attr unit b
vector 105 TargetNetwork.dds_switch.ethernet.fcsChecker outgoingPacketLengths:vector ETV
attr interpolationmode none
attr recordingmode vector
attr source "packetLength(merge(packetPushedOut, packetPulledOut))"
attr title "outgoing packet lengths"
attr unit b
vector 106 TargetNetwork.dds_switch.ethernet.macHeaderChecker incomingPacketLengths:vector ETV
attr interpolationmode none
attr recordingmode vector
attr source "packetLength(merge(packetPushedIn, packetPulledIn))"
attr title "incoming packet lengths"
attr unit b
vector 107 TargetNetwork.dds_switch.ethernet.macHeaderChecker outgoingPacketLengths:vector ETV
attr interpolationmode none
attr recordingmode vector
attr source "packetLength(merge(packetPushedOut, packetPulledOut))"
attr title "outgoing packet lengths"
attr unit b
vector 108 TargetNetwork.dds_cpu3.eth[0].mac txPk:vector(packetBytes) ETV
attr interpolationmode none
attr recordingmode vector(packetBytes)
attr source packetSentToLower
attr title "packets transmitted, packetBytes"
vector 109 TargetNetwork.dds_switch2.eth[1].phyLayer.receiver receptionTime:vector ETV
attr interpolationmode none
attr recordingmode vector
attr source packetDuration(receptionEnded)
attr title "reception time"
attr unit s
vector 110 TargetNetwork.dds_switch2.eth[1].phyLayer.inboundEmitter incomingPacketLengths:vector ETV
attr interpolationmode none
attr recordingmode vector
attr source "packetLength(merge(packetPushedIn, packetPulledIn))"
attr title "incoming packet lengths"
attr unit b
vector 111 TargetNetwork.dds_switch2.eth[1].phyLayer.inboundEmitter outgoingPacketLengths:vector ETV
attr interpolationmode none
attr recordingmode vector
attr source "packetLength(merge(packetPushedOut, packetPulledOut))"
attr title "outgoing packet lengths"
attr unit b
vector 112 TargetNetwork.dds_switch2.eth[1].phyLayer.phyHeaderChecker incomingPacketLengths:vector ETV
attr interpolationmode none
attr recordingmode vector
attr source "packetLength(merge(packetPushedIn, packetPulledIn))"
attr title "incoming packet lengths"
attr unit b
vector 113 TargetNetwork.dds_switch2.eth[1].phyLayer.phyHeaderChecker outgoingPacketLengths:vector ETV
attr interpolationmode none
attr recordingmode vector
attr source "packetLength(merge(packetPushedOut, packetPulledOut))"
attr title "outgoing packet lengths"
attr unit b
vector 114 TargetNetwork.dds_switch2.eth[1].macLayer.inboundEmitter incomingPacketLengths:vector ETV
attr interpolationmode none
attr recordingmode vector
attr source "packetLength(merge(packetPushedIn, packetPulledIn))"
attr title "incoming packet lengths"
attr unit b
vector 115 TargetNetwork.dds_switch2.eth[1].macLayer.inboundEmitter outgoingPacketLengths:vector ETV
attr interpolationmode none
attr recordingmode vector
attr source "packetLength(merge(packetPushedOut, packetPulledOut))"
attr title "outgoing packet lengths"
attr unit b
vector 116 TargetNetwork.dds_switch2.eth[1].macLayer.fcsChecker incomingPacketLengths:vector ETV
attr interpolationmode none
attr recordingmode vector
attr source "packetLength(merge(packetPushedIn, packetPulledIn))"
attr title "incoming packet lengths"
attr unit b
vector 117 TargetNetwork.dds_switch2.eth[1].macLayer.fcsChecker outgoingPacketLengths:vector ETV
attr interpolationmode none
attr recordingmode vector
attr source "packetLength(merge(packetPushedOut, packetPulledOut))"
attr title "outgoing packet lengths"
attr unit b
vector 118 TargetNetwork.dds_switch2.ethernet.fcsChecker incomingPacketLengths:vector ETV
attr interpolationmode none
attr recordingmode vector
attr source "packetLength(merge(packetPushedIn, packetPulledIn))"
attr title "incoming packet lengths"
attr unit b
vector 119 TargetNetwork.dds_switch2.ethernet.fcsChecker outgoingPacketLengths:vector ETV
attr interpolationmode none
attr recordingmode vector
attr source "packetLength(merge(packetPushedOut, packetPulledOut))"
attr title "outgoing packet lengths"
attr unit b
vector 120 TargetNetwork.dds_switch2.ethernet.macHeaderChecker incomingPacketLengths:vector ETV
attr interpolationmode none
attr recordingmode vector
attr source "packetLength(merge(packetPushedIn, packetPulledIn))"
attr title "incoming packet lengths"
attr unit b
vector 121 TargetNetwork.dds_switch2.ethernet.macHeaderChecker outgoingPacketLengths:vector ETV
attr interpolationmode none
attr recordingmode vector
attr source "packetLength(merge(packetPushedOut, packetPulledOut))"
attr title "outgoing packet lengths"
attr unit b
vector 122 TargetNetwork.dds_cpu3.eth[1].mac txPk:vector(packetBytes) ETV
attr interpolationmode none
attr recordingmode vector(packetBytes)
attr source packetSentToLower
attr title "packets transmitted, packetBytes"
vector 123 TargetNetwork.dds_switch.eth[2].phyLayer.receiver receptionTime:vector ETV
attr interpolationmode none
attr recordingmode vector
attr source packetDuration(receptionEnded)
attr title "reception time"
attr unit s
vector 124 TargetNetwork.dds_switch.eth[2].phyLayer.inboundEmitter incomingPacketLengths:vector ETV
attr interpolationmode none
attr recordingmode vector
attr source "packetLength(merge(packetPushedIn, packetPulledIn))"
attr title "incoming packet lengths"
attr unit b
vector 125 TargetNetwork.dds_switch.eth[2].phyLayer.inboundEmitter outgoingPacketLengths:vector ETV
attr interpolationmode none
attr recordingmode vector
attr source "packetLength(merge(packetPushedOut, packetPulledOut))"
attr title "outgoing packet lengths"
attr unit b
vector 126 TargetNetwork.dds_switch.eth[2].phyLayer.phyHeaderChecker incomingPacketLengths:vector ETV
attr interpolationmode none
attr recordingmode vector
attr source "packetLength(merge(packetPushedIn, packetPulledIn))"
attr title "incoming packet lengths"
attr unit b
vector 127 TargetNetwork.dds_switch.eth[2].phyLayer.phyHeaderChecker outgoingPacketLengths:vector ETV
attr interpolationmode none
attr recordingmode vector
attr source "packetLength(merge(packetPushedOut, packetPulledOut))"
attr title "outgoing packet lengths"
attr unit b
vector 128 TargetNetwork.dds_switch.eth[2].macLayer.inboundEmitter incomingPacketLengths:vector ETV
attr interpolationmode none
attr recordingmode vector
attr source "packetLength(merge(packetPushedIn, packetPulledIn))"
attr title "incoming packet lengths"
attr unit b
vector 129 TargetNetwork.dds_switch.eth[2].macLayer.inboundEmitter outgoingPacketLengths:vector ETV
attr interpolationmode none
attr recordingmode vector
attr source "packetLength(merge(packetPushedOut, packetPulledOut))"
attr title "outgoing packet lengths"
attr unit b
vector 130 TargetNetwork.dds_switch.eth[2].macLayer.fcsChecker incomingPacketLengths:vector ETV
attr interpolationmode none
attr recordingmode vector
attr source "packetLength(merge(packetPushedIn, packetPulledIn))"
attr title "incoming packet lengths"
attr unit b
vector 131 TargetNetwork.dds_switch.eth[2].macLayer.fcsChecker outgoingPacketLengths:vector ETV
attr interpolationmode none
attr recordingmode vector
attr source "packetLength(merge(packetPushedOut, packetPulledOut))"
attr title "outgoing packet lengths"
attr unit b
vector 132 TargetNetwork.dds_cpu4.eth[0].mac txPk:vector(packetBytes) ETV
attr interpolationmode none
attr recordingmode vector(packetBytes)
attr source packetSentToLower
attr title "packets transmitted, packetBytes"
vector 133 TargetNetwork.dds_switch2.eth[2].phyLayer.receiver receptionTime:vector ETV
attr interpolationmode none
attr recordingmode vector
attr source packetDuration(receptionEnded)
attr title "reception time"
attr unit s
vector 134 TargetNetwork.dds_switch2.eth[2].phyLayer.inboundEmitter incomingPacketLengths:vector ETV
attr interpolationmode none
attr recordingmode vector
attr source "packetLength(merge(packetPushedIn, packetPulledIn))"
attr title "incoming packet lengths"
attr unit b
vector 135 TargetNetwork.dds_switch2.eth[2].phyLayer.inboundEmitter outgoingPacketLengths:vector ETV
attr interpolationmode none
attr recordingmode vector
attr source "packetLength(merge(packetPushedOut, packetPulledOut))"
attr title "outgoing packet lengths"
attr unit b
vector 136 TargetNetwork.dds_switch2.eth[2].phyLayer.phyHeaderChecker incomingPacketLengths:vector ETV
attr interpolationmode none
attr recordingmode vector
attr source "packetLength(merge(packetPushedIn, packetPulledIn))"
attr title "incoming packet lengths"
attr unit b
vector 137 TargetNetwork.dds_switch2.eth[2].phyLayer.phyHeaderChecker outgoingPacketLengths:vector ETV
attr interpolationmode none
attr recordingmode vector
attr source "packetLength(merge(packetPushedOut, packetPulledOut))"
attr title "outgoing packet lengths"
attr unit b
vector 138 TargetNetwork.dds_switch2.eth[2].macLayer.inboundEmitter incomingPacketLengths:vector ETV
attr interpolationmode none
attr recordingmode vector
attr source "packetLength(merge(packetPushedIn, packetPulledIn))"
attr title "incoming packet lengths"
attr unit b
vector 139 TargetNetwork.dds_switch2.eth[2].macLayer.inboundEmitter outgoingPacketLengths:vector ETV
attr interpolationmode none
attr recordingmode vector
attr source "packetLength(merge(packetPushedOut, packetPulledOut))"
attr title "outgoing packet lengths"
attr unit b
vector 140 TargetNetwork.dds_switch2.eth[2].macLayer.fcsChecker incomingPacketLengths:vector ETV
attr interpolationmode none
attr recordingmode vector
attr source "packetLength(merge(packetPushedIn, packetPulledIn))"
attr title "incoming packet lengths"
attr unit b
vector 141 TargetNetwork.dds_switch2.eth[2].macLayer.fcsChecker outgoingPacketLengths:vector ETV
attr interpolationmode none
attr recordingmode vector
attr source "packetLength(merge(packetPushedOut, packetPulledOut))"
attr title "outgoing packet lengths"
attr unit b
vector 142 TargetNetwork.dds_cpu4.eth[1].mac txPk:vector(packetBytes) ETV
attr interpolationmode none
attr recordingmode vector(packetBytes)
attr source packetSentToLower
attr title "packets transmitted, packetBytes"
vector 143 TargetNetwork.dds_switch.eth[3].phyLayer.receiver receptionTime:vector ETV
attr interpolationmode none
attr recordingmode vector
attr source packetDuration(receptionEnded)
attr title "reception time"
attr unit s
vector 144 TargetNetwork.dds_switch.eth[3].phyLayer.inboundEmitter incomingPacketLengths:vector ETV
attr interpolationmode none
attr recordingmode vector
attr source "packetLength(merge(packetPushedIn, packetPulledIn))"
attr title "incoming packet lengths"
attr unit b
vector 145 TargetNetwork.dds_switch.eth[3].phyLayer.inboundEmitter outgoingPacketLengths:vector ETV
attr interpolationmode none
attr recordingmode vector
attr source "packetLength(merge(packetPushedOut, packetPulledOut))"
attr title "outgoing packet lengths"
attr unit b
vector 146 TargetNetwork.dds_switch.eth[3].phyLayer.phyHeaderChecker incomingPacketLengths:vector ETV
attr interpolationmode none
attr recordingmode vector
attr source "packetLength(merge(packetPushedIn, packetPulledIn))"
attr title "incoming packet lengths"
attr unit b
vector 147 TargetNetwork.dds_switch.eth[3].phyLayer.phyHeaderChecker outgoingPacketLengths:vector ETV
attr interpolationmode none
attr recordingmode vector
attr source "packetLength(merge(packetPushedOut, packetPulledOut))"
attr title "outgoing packet lengths"
attr unit b
vector 148 TargetNetwork.dds_switch.eth[3].macLayer.inboundEmitter incomingPacketLengths:vector ETV
attr interpolationmode none
attr recordingmode vector
attr source "packetLength(merge(packetPushedIn, packetPulledIn))"
attr title "incoming packet lengths"
attr unit b
vector 149 TargetNetwork.dds_switch.eth[3].macLayer.inboundEmitter outgoingPacketLengths:vector ETV
attr interpolationmode none
attr recordingmode vector
attr source "packetLength(merge(packetPushedOut, packetPulledOut))"
attr title "outgoing packet lengths"
attr unit b
vector 150 TargetNetwork.dds_switch.eth[3].macLayer.fcsChecker incomingPacketLengths:vector ETV
attr interpolationmode none
attr recordingmode vector
attr source "packetLength(merge(packetPushedIn, packetPulledIn))"
attr title "incoming packet lengths"
attr unit b
vector 151 TargetNetwork.dds_switch.eth[3].macLayer.fcsChecker outgoingPacketLengths:vector ETV
attr interpolationmode none
attr recordingmode vector
attr source "packetLength(merge(packetPushedOut, packetPulledOut))"
attr title "outgoing packet lengths"
attr unit b
vector 152 TargetNetwork.dds_cpu5.eth[0].mac txPk:vector(packetBytes) ETV
attr interpolationmode none
attr recordingmode vector(packetBytes)
attr source packetSentToLower
attr title "packets transmitted, packetBytes"
vector 153 TargetNetwork.dds_switch2.eth[3].phyLayer.receiver receptionTime:vector ETV
attr interpolationmode none
attr recordingmode vector
attr source packetDuration(receptionEnded)
attr title "reception time"
attr unit s
vector 154 TargetNetwork.dds_switch2.eth[3].phyLayer.inboundEmitter incomingPacketLengths:vector ETV
attr interpolationmode none
attr recordingmode vector
attr source "packetLength(merge(packetPushedIn, packetPulledIn))"
attr title "incoming packet lengths"
attr unit b
vector 155 TargetNetwork.dds_switch2.eth[3].phyLayer.inboundEmitter outgoingPacketLengths:vector ETV
attr interpolationmode none
attr recordingmode vector
attr source "packetLength(merge(packetPushedOut, packetPulledOut))"
attr title "outgoing packet lengths"
attr unit b
vector 156 TargetNetwork.dds_switch2.eth[3].phyLayer.phyHeaderChecker incomingPacketLengths:vector ETV
attr interpolationmode none
attr recordingmode vector
attr source "packetLength(merge(packetPushedIn, packetPulledIn))"
attr title "incoming packet lengths"
attr unit b
vector 157 TargetNetwork.dds_switch2.eth[3].phyLayer.phyHeaderChecker outgoingPacketLengths:vector ETV
attr interpolationmode none
attr recordingmode vector
attr source "packetLength(merge(packetPushedOut, packetPulledOut))"
attr title "outgoing packet lengths"
attr unit b
vector 158 TargetNetwork.dds_switch2.eth[3].macLayer.inboundEmitter incomingPacketLengths:vector ETV
attr interpolationmode none
attr recordingmode vector
attr source "packetLength(merge(packetPushedIn, packetPulledIn))"
attr title "incoming packet lengths"
attr unit b
vector 159 TargetNetwork.dds_switch2.eth[3].macLayer.inboundEmitter outgoingPacketLengths:vector ETV
attr interpolationmode none
attr recordingmode vector
attr source "packetLength(merge(packetPushedOut, packetPulledOut))"
attr title "outgoing packet lengths"
attr unit b
vector 160 TargetNetwork.dds_switch2.eth[3].macLayer.fcsChecker incomingPacketLengths:vector ETV
attr interpolationmode none
attr recordingmode vector
attr source "packetLength(merge(packetPushedIn, packetPulledIn))"
attr title "incoming packet lengths"
attr unit b
vector 161 TargetNetwork.dds_switch2.eth[3].macLayer.fcsChecker outgoingPacketLengths:vector ETV
attr interpolationmode none
attr recordingmode vector
attr source "packetLength(merge(packetPushedOut, packetPulledOut))"
attr title "outgoing packet lengths"
attr unit b
vector 162 TargetNetwork.dds_cpu5.eth[1].mac txPk:vector(packetBytes) ETV
attr interpolationmode none
attr recordingmode vector(packetBytes)
attr source packetSentToLower
attr title "packets transmitted, packetBytes"
vector 163 TargetNetwork.dds_switch.ethernet.macHeaderInserter incomingPacketLengths:vector ETV
attr interpolationmode none
attr recordingmode vector
attr source "packetLength(merge(packetPushedIn, packetPulledIn))"
attr title "incoming packet lengths"
attr unit b
vector 164 TargetNetwork.dds_switch.ethernet.macHeaderInserter outgoingPacketLengths:vector ETV
attr interpolationmode none
attr recordingmode vector
attr source "packetLength(merge(packetPushedOut, packetPulledOut))"
attr title "outgoing packet lengths"
attr unit b
vector 165 TargetNetwork.dds_switch.ethernet.paddingInserter incomingPacketLengths:vector ETV
attr interpolationmode none
attr recordingmode vector
attr source "packetLength(merge(packetPushedIn, packetPulledIn))"
attr title "incoming packet lengths"
attr unit b
vector 166 TargetNetwork.dds_switch.ethernet.paddingInserter outgoingPacketLengths:vector ETV
attr interpolationmode none
attr recordingmode vector
attr source "packetLength(merge(packetPushedOut, packetPulledOut))"
attr title "outgoing packet lengths"
attr unit b
vector 167 TargetNetwork.dds_switch.ethernet.fcsInserter incomingPacketLengths:vector ETV
attr interpolationmode none
attr recordingmode vector
attr source "packetLength(merge(packetPushedIn, packetPulledIn))"
attr title "incoming packet lengths"
attr unit b
vector 168 TargetNetwork.dds_switch.ethernet.fcsInserter outgoingPacketLengths:vector ETV
attr interpolationmode none
attr recordingmode vector
attr source "packetLength(merge(packetPushedOut, packetPulledOut))"
attr title "outgoing packet lengths"
attr unit b
vector 169 TargetNetwork.dds_switch.eth[0].macLayer.queue incomingPacketLengths:vector ETV
attr interpolationmode none
attr recordingmode vector
attr source packetLength(packetPushStarted)
attr title "incoming packet lengths"
attr unit b
vector 170 TargetNetwork.dds_switch.eth[0].macLayer.queue _port8 ETV
vector 171 TargetNetwork.dds_switch.eth[0].macLayer.queue queueLength:vector ETV
attr autoWarmupFilter false
attr interpolationmode sample-hold
attr recordingmode vector
attr source "warmup(atomic(constant0(packetPushEnded) + count(packetPushStarted) - count(packetPulled) - count(packetRemoved) - count(packetDropped)))"
attr title "queue length"
attr unit pk
vector 172 TargetNetwork.dds_switch.eth[0].macLayer.queue queueBitLength:vector ETV
attr autoWarmupFilter false
attr interpolationmode sample-hold
attr recordingmode vector
attr source "warmup(atomic(constant0(packetPushEnded) + sum(packetLength(packetPushStarted)) - sum(packetLength(packetPulled)) - sum(packetLength(packetRemoved)) - sum(packetLength(packetDropped))))"
attr title "queue bit length"
attr unit b
vector 173 TargetNetwork.dds_switch.eth[2].macLayer.queue incomingPacketLengths:vector ETV
attr interpolationmode none
attr recordingmode vector
attr source packetLength(packetPushStarted)
attr title "incoming packet lengths"
attr unit b
vector 174 TargetNetwork.dds_switch.eth[2].macLayer.queue _port10 ETV
vector 175 TargetNetwork.dds_switch.eth[2].macLayer.queue queueLength:vector ETV
attr autoWarmupFilter false
attr interpolationmode sample-hold
attr recordingmode vector
attr source "warmup(atomic(constant0(packetPushEnded) + count(packetPushStarted) - count(packetPulled) - count(packetRemoved) - count(packetDropped)))"
attr title "queue length"
attr unit pk
vector 176 TargetNetwork.dds_switch.eth[2].macLayer.queue queueBitLength:vector ETV
attr autoWarmupFilter false
attr interpolationmode sample-hold
attr recordingmode vector
attr source "warmup(atomic(constant0(packetPushEnded) + sum(packetLength(packetPushStarted)) - sum(packetLength(packetPulled)) - sum(packetLength(packetRemoved)) - sum(packetLength(packetDropped))))"
attr title "queue bit length"
attr unit b
vector 177 TargetNetwork.dds_switch.eth[3].macLayer.queue incomingPacketLengths:vector ETV
attr interpolationmode none
attr recordingmode vector
attr source packetLength(packetPushStarted)
attr title "incoming packet lengths"
attr unit b
vector 178 TargetNetwork.dds_switch.eth[3].macLayer.queue _port11 ETV
vector 179 TargetNetwork.dds_switch.eth[3].macLayer.queue queueLength:vector ETV
attr autoWarmupFilter false
attr interpolationmode sample-hold
attr recordingmode vector
attr source "warmup(atomic(constant0(packetPushEnded) + count(packetPushStarted) - count(packetPulled) - count(packetRemoved) - count(packetDropped)))"
attr title "queue length"
attr unit pk
vector 180 TargetNetwork.dds_switch.eth[3].macLayer.queue queueBitLength:vector ETV
attr autoWarmupFilter false
attr interpolationmode sample-hold
attr recordingmode vector
attr source "warmup(atomic(constant0(packetPushEnded) + sum(packetLength(packetPushStarted)) - sum(packetLength(packetPulled)) - sum(packetLength(packetRemoved)) - sum(packetLength(packetDropped))))"
attr title "queue bit length"
attr unit b
vector 181 TargetNetwork.dds_switch2.ethernet.macHeaderInserter incomingPacketLengths:vector ETV
attr interpolationmode none
attr recordingmode vector
attr source "packetLength(merge(packetPushedIn, packetPulledIn))"
attr title "incoming packet lengths"
attr unit b
vector 182 TargetNetwork.dds_switch2.ethernet.macHeaderInserter outgoingPacketLengths:vector ETV
attr interpolationmode none
attr recordingmode vector
attr source "packetLength(merge(packetPushedOut, packetPulledOut))"
attr title "outgoing packet lengths"
attr unit b
vector 183 TargetNetwork.dds_switch2.ethernet.paddingInserter incomingPacketLengths:vector ETV
attr interpolationmode none
attr recordingmode vector
attr source "packetLength(merge(packetPushedIn, packetPulledIn))"
attr title "incoming packet lengths"
attr unit b
vector 184 TargetNetwork.dds_switch2.ethernet.paddingInserter outgoingPacketLengths:vector ETV
attr interpolationmode none
attr recordingmode vector
attr source "packetLength(merge(packetPushedOut, packetPulledOut))"
attr title "outgoing packet lengths"
attr unit b
vector 185 TargetNetwork.dds_switch2.ethernet.fcsInserter incomingPacketLengths:vector ETV
attr interpolationmode none
attr recordingmode vector
attr source "packetLength(merge(packetPushedIn, packetPulledIn))"
attr title "incoming packet lengths"
attr unit b
vector 186 TargetNetwork.dds_switch2.ethernet.fcsInserter outgoingPacketLengths:vector ETV
attr interpolationmode none
attr recordingmode vector
attr source "packetLength(merge(packetPushedOut, packetPulledOut))"
attr title "outgoing packet lengths"
attr unit b
vector 187 TargetNetwork.dds_switch2.eth[0].macLayer.queue incomingPacketLengths:vector ETV
attr interpolationmode none
attr recordingmode vector
attr source packetLength(packetPushStarted)
attr title "incoming packet lengths"
attr unit b
vector 188 TargetNetwork.dds_switch2.eth[0].macLayer.queue _port12 ETV
vector 189 TargetNetwork.dds_switch2.eth[0].macLayer.queue queueLength:vector ETV
attr autoWarmupFilter false
attr interpolationmode sample-hold
attr recordingmode vector
attr source "warmup(atomic(constant0(packetPushEnded) + count(packetPushStarted) - count(packetPulled) - count(packetRemoved) - count(packetDropped)))"
attr title "queue length"
attr unit pk
vector 190 TargetNetwork.dds_switch2.eth[0].macLayer.queue queueBitLength:vector ETV
attr autoWarmupFilter false
attr interpolationmode sample-hold
attr recordingmode vector
attr source "warmup(atomic(constant0(packetPushEnded) + sum(packetLength(packetPushStarted)) - sum(packetLength(packetPulled)) - sum(packetLength(packetRemoved)) - sum(packetLength(packetDropped))))"
attr title "queue bit length"
attr unit b
vector 191 TargetNetwork.dds_switch2.eth[2].macLayer.queue incomingPacketLengths:vector ETV
attr interpolationmode none
attr recordingmode vector
attr source packetLength(packetPushStarted)
attr title "incoming packet lengths"
attr unit b
vector 192 TargetNetwork.dds_switch2.eth[2].macLayer.queue _port14 ETV
vector 193 TargetNetwork.dds_switch2.eth[2].macLayer.queue queueLength:vector ETV
attr autoWarmupFilter false
attr interpolationmode sample-hold
attr recordingmode vector
attr source "warmup(atomic(constant0(packetPushEnded) + count(packetPushStarted) - count(packetPulled) - count(packetRemoved) - count(packetDropped)))"
attr title "queue length"
attr unit pk
vector 194 TargetNetwork.dds_switch2.eth[2].macLayer.queue queueBitLength:vector ETV
attr autoWarmupFilter false
attr interpolationmode sample-hold
attr recordingmode vector
attr source "warmup(atomic(constant0(packetPushEnded) + sum(packetLength(packetPushStarted)) - sum(packetLength(packetPulled)) - sum(packetLength(packetRemoved)) - sum(packetLength(packetDropped))))"
attr title "queue bit length"
attr unit b
vector 195 TargetNetwork.dds_switch2.eth[3].macLayer.queue incomingPacketLengths:vector ETV
attr interpolationmode none
attr recordingmode vector
attr source packetLength(packetPushStarted)
attr title "incoming packet lengths"
attr unit b
vector 196 TargetNetwork.dds_switch2.eth[3].macLayer.queue _port15 ETV
vector 197 TargetNetwork.dds_switch2.eth[3].macLayer.queue queueLength:vector ETV
attr autoWarmupFilter false
attr interpolationmode sample-hold
attr recordingmode vector
attr source "warmup(atomic(constant0(packetPushEnded) + count(packetPushStarted) - count(packetPulled) - count(packetRemoved) - count(packetDropped)))"
attr title "queue length"
attr unit pk
vector 198 TargetNetwork.dds_switch2.eth[3].macLayer.queue queueBitLength:vector ETV
attr autoWarmupFilter false
attr interpolationmode sample-hold
attr recordingmode vector
attr source "warmup(atomic(constant0(packetPushEnded) + sum(packetLength(packetPushStarted)) - sum(packetLength(packetPulled)) - sum(packetLength(packetRemoved)) - sum(packetLength(packetDropped))))"
attr title "queue bit length"
attr unit b
vector 199 TargetNetwork.dds_switch.eth[1].macLayer.queue incomingPacketLengths:vector ETV
attr interpolationmode none
attr recordingmode vector
attr source packetLength(packetPushStarted)
attr title "incoming packet lengths"
attr unit b
vector 200 TargetNetwork.dds_switch.eth[1].macLayer.queue _port9 ETV
vector 201 TargetNetwork.dds_switch.eth[1].macLayer.queue queueLength:vector ETV
attr autoWarmupFilter false
attr interpolationmode sample-hold
attr recordingmode vector
attr source "warmup(atomic(constant0(packetPushEnded) + count(packetPushStarted) - count(packetPulled) - count(packetRemoved) - count(packetDropped)))"
attr title "queue length"
attr unit pk
vector 202 TargetNetwork.dds_switch.eth[1].macLayer.queue queueBitLength:vector ETV
attr autoWarmupFilter false
attr interpolationmode sample-hold
attr recordingmode vector
attr source "warmup(atomic(constant0(packetPushEnded) + sum(packetLength(packetPushStarted)) - sum(packetLength(packetPulled)) - sum(packetLength(packetRemoved)) - sum(packetLength(packetDropped))))"
attr title "queue bit length"
attr unit b
vector 203 TargetNetwork.dds_switch2.eth[1].macLayer.queue incomingPacketLengths:vector ETV
attr interpolationmode none
attr recordingmode vector
attr source packetLength(packetPushStarted)
attr title "incoming packet lengths"
attr unit b
vector 204 TargetNetwork.dds_switch2.eth[1].macLayer.queue _port13 ETV
vector 205 TargetNetwork.dds_switch2.eth[1].macLayer.queue queueLength:vector ETV
attr autoWarmupFilter false
attr interpolationmode sample-hold
attr recordingmode vector
attr source "warmup(atomic(constant0(packetPushEnded) + count(packetPushStarted) - count(packetPulled) - count(packetRemoved) - count(packetDropped)))"
attr title "queue length"
attr unit pk
vector 206 TargetNetwork.dds_switch2.eth[1].macLayer.queue queueBitLength:vector ETV
attr autoWarmupFilter false
attr interpolationmode sample-hold
attr recordingmode vector
attr source "warmup(atomic(constant0(packetPushEnded) + sum(packetLength(packetPushStarted)) - sum(packetLength(packetPulled)) - sum(packetLength(packetRemoved)) - sum(packetLength(packetDropped))))"
attr title "queue bit length"
attr unit b
vector 207 TargetNetwork.dds_switch.eth[3].macLayer.queue queueingTime:vector ETV
attr interpolationmode none
attr recordingmode vector
attr source queueingTime(packetPulled)
attr title "queueing times"
attr unit s
vector 208 TargetNetwork.dds_switch.eth[3].macLayer.queue outgoingPacketLengths:vector ETV
attr interpolationmode none
attr recordingmode vector
attr source packetLength(packetPulled)
attr title "outgoing packet lengths"
attr unit b
vector 209 TargetNetwork.dds_switch.eth[3].macLayer.server incomingPacketLengths:vector ETV
attr interpolationmode none
attr recordingmode vector
attr source packetLength(packetPulled)
attr title "incoming packet lengths"
attr unit b
vector 210 TargetNetwork.dds_switch.eth[3].macLayer.server outgoingPacketLengths:vector ETV
attr interpolationmode none
attr recordingmode vector
attr source packetLength(packetPushed)
attr title "outgoing packet lengths"
attr unit b
vector 211 TargetNetwork.dds_switch.eth[3].macLayer.outboundEmitter incomingPacketLengths:vector ETV
attr interpolationmode none
attr recordingmode vector
attr source "packetLength(merge(packetPushedIn, packetPulledIn))"
attr title "incoming packet lengths"
attr unit b
vector 212 TargetNetwork.dds_switch.eth[3].macLayer.outboundEmitter outgoingPacketLengths:vector ETV
attr interpolationmode none
attr recordingmode vector
attr source "packetLength(merge(packetPushedOut, packetPulledOut))"
attr title "outgoing packet lengths"
attr unit b
vector 213 TargetNetwork.dds_switch.eth[3].phyLayer.phyHeaderInserter incomingPacketLengths:vector ETV
attr interpolationmode none
attr recordingmode vector
attr source "packetLength(merge(packetPushedIn, packetPulledIn))"
attr title "incoming packet lengths"
attr unit b
vector 214 TargetNetwork.dds_switch.eth[3].phyLayer.phyHeaderInserter outgoingPacketLengths:vector ETV
attr interpolationmode none
attr recordingmode vector
attr source "packetLength(merge(packetPushedOut, packetPulledOut))"
attr title "outgoing packet lengths"
attr unit b
vector 215 TargetNetwork.dds_switch.eth[3].phyLayer.outboundEmitter incomingPacketLengths:vector ETV
attr interpolationmode none
attr recordingmode vector
attr source "packetLength(merge(packetPushedIn, packetPulledIn))"
attr title "incoming packet lengths"
attr unit b
vector 216 TargetNetwork.dds_switch.eth[3].phyLayer.outboundEmitter outgoingPacketLengths:vector ETV
attr interpolationmode none
attr recordingmode vector
attr source "packetLength(merge(packetPushedOut, packetPulledOut))"
attr title "outgoing packet lengths"
attr unit b
vector 217 TargetNetwork.dds_switch2.eth[3].macLayer.queue queueingTime:vector ETV
attr interpolationmode none
attr recordingmode vector
attr source queueingTime(packetPulled)
attr title "queueing times"
attr unit s
vector 218 TargetNetwork.dds_switch2.eth[3].macLayer.queue outgoingPacketLengths:vector ETV
attr interpolationmode none
attr recordingmode vector
attr source packetLength(packetPulled)
attr title "outgoing packet lengths"
attr unit b
vector 219 TargetNetwork.dds_switch2.eth[3].macLayer.server incomingPacketLengths:vector ETV
attr interpolationmode none
attr recordingmode vector
attr source packetLength(packetPulled)
attr title "incoming packet lengths"
attr unit b
vector 220 TargetNetwork.dds_switch2.eth[3].macLayer.server outgoingPacketLengths:vector ETV
attr interpolationmode none
attr recordingmode vector
attr source packetLength(packetPushed)
attr title "outgoing packet lengths"
attr unit b
vector 221 TargetNetwork.dds_switch2.eth[3].macLayer.outboundEmitter incomingPacketLengths:vector ETV
attr interpolationmode none
attr recordingmode vector
attr source "packetLength(merge(packetPushedIn, packetPulledIn))"
attr title "incoming packet lengths"
attr unit b
vector 222 TargetNetwork.dds_switch2.eth[3].macLayer.outboundEmitter outgoingPacketLengths:vector ETV
attr interpolationmode none
attr recordingmode vector
attr source "packetLength(merge(packetPushedOut, packetPulledOut))"
attr title "outgoing packet lengths"
attr unit b
vector 223 TargetNetwork.dds_switch2.eth[3].phyLayer.phyHeaderInserter incomingPacketLengths:vector ETV
attr interpolationmode none
attr recordingmode vector
attr source "packetLength(merge(packetPushedIn, packetPulledIn))"
attr title "incoming packet lengths"
attr unit b
vector 224 TargetNetwork.dds_switch2.eth[3].phyLayer.phyHeaderInserter outgoingPacketLengths:vector ETV
attr interpolationmode none
attr recordingmode vector
attr source "packetLength(merge(packetPushedOut, packetPulledOut))"
attr title "outgoing packet lengths"
attr unit b
vector 225 TargetNetwork.dds_switch2.eth[3].phyLayer.outboundEmitter incomingPacketLengths:vector ETV
attr interpolationmode none
attr recordingmode vector
attr source "packetLength(merge(packetPushedIn, packetPulledIn))"
attr title "incoming packet lengths"
attr unit b
vector 226 TargetNetwork.dds_switch2.eth[3].phyLayer.outboundEmitter outgoingPacketLengths:vector ETV
attr interpolationmode none
attr recordingmode vector
attr source "packetLength(merge(packetPushedOut, packetPulledOut))"
attr title "outgoing packet lengths"
attr unit b
vector 227 TargetNetwork.dds_switch.eth[0].macLayer.queue queueingTime:vector ETV
attr interpolationmode none
attr recordingmode vector
attr source queueingTime(packetPulled)
attr title "queueing times"
attr unit s
vector 228 TargetNetwork.dds_switch.eth[0].macLayer.queue outgoingPacketLengths:vector ETV
attr interpolationmode none
attr recordingmode vector
attr source packetLength(packetPulled)
attr title "outgoing packet lengths"
attr unit b
vector 229 TargetNetwork.dds_switch.eth[0].macLayer.server incomingPacketLengths:vector ETV
attr interpolationmode none
attr recordingmode vector
attr source packetLength(packetPulled)
attr title "incoming packet lengths"
attr unit b
vector 230 TargetNetwork.dds_switch.eth[0].macLayer.server outgoingPacketLengths:vector ETV
attr interpolationmode none
attr recordingmode vector
attr source packetLength(packetPushed)
attr title "outgoing packet lengths"
attr unit b
vector 231 TargetNetwork.dds_switch.eth[0].macLayer.outboundEmitter incomingPacketLengths:vector ETV
attr interpolationmode none
attr recordingmode vector
attr source "packetLength(merge(packetPushedIn, packetPulledIn))"
attr title "incoming packet lengths"
attr unit b
vector 232 TargetNetwork.dds_switch.eth[0].macLayer.outboundEmitter outgoingPacketLengths:vector ETV
attr interpolationmode none
attr recordingmode vector
attr source "packetLength(merge(packetPushedOut, packetPulledOut))"
attr title "outgoing packet lengths"
attr unit b
vector 233 TargetNetwork.dds_switch.eth[0].phyLayer.phyHeaderInserter incomingPacketLengths:vector ETV
attr interpolationmode none
attr recordingmode vector
attr source "packetLength(merge(packetPushedIn, packetPulledIn))"
attr title "incoming packet lengths"
attr unit b
vector 234 TargetNetwork.dds_switch.eth[0].phyLayer.phyHeaderInserter outgoingPacketLengths:vector ETV
attr interpolationmode none
attr recordingmode vector
attr source "packetLength(merge(packetPushedOut, packetPulledOut))"
attr title "outgoing packet lengths"
attr unit b
vector 235 TargetNetwork.dds_switch.eth[0].phyLayer.outboundEmitter incomingPacketLengths:vector ETV
attr interpolationmode none
attr recordingmode vector
attr source "packetLength(merge(packetPushedIn, packetPulledIn))"
attr title "incoming packet lengths"
attr unit b
vector 236 TargetNetwork.dds_switch.eth[0].phyLayer.outboundEmitter outgoingPacketLengths:vector ETV
attr interpolationmode none
attr recordingmode vector
attr source "packetLength(merge(packetPushedOut, packetPulledOut))"
attr title "outgoing packet lengths"
attr unit b
vector 237 TargetNetwork.dds_switch.eth[1].macLayer.queue queueingTime:vector ETV
attr interpolationmode none
attr recordingmode vector
attr source queueingTime(packetPulled)
attr title "queueing times"
attr unit s
vector 238 TargetNetwork.dds_switch.eth[1].macLayer.queue outgoingPacketLengths:vector ETV
attr interpolationmode none
attr recordingmode vector
attr source packetLength(packetPulled)
attr title "outgoing packet lengths"
attr unit b
vector 239 TargetNetwork.dds_switch.eth[1].macLayer.server incomingPacketLengths:vector ETV
attr interpolationmode none
attr recordingmode vector
attr source packetLength(packetPulled)
attr title "incoming packet lengths"
attr unit b
vector 240 TargetNetwork.dds_switch.eth[1].macLayer.server outgoingPacketLengths:vector ETV
attr interpolationmode none
attr recordingmode vector
attr source packetLength(packetPushed)
attr title "outgoing packet lengths"
attr unit b
vector 241 TargetNetwork.dds_switch.eth[1].macLayer.outboundEmitter incomingPacketLengths:vector ETV
attr interpolationmode none
attr recordingmode vector
attr source "packetLength(merge(packetPushedIn, packetPulledIn))"
attr title "incoming packet lengths"
attr unit b
vector 242 TargetNetwork.dds_switch.eth[1].macLayer.outboundEmitter outgoingPacketLengths:vector ETV
attr interpolationmode none
attr recordingmode vector
attr source "packetLength(merge(packetPushedOut, packetPulledOut))"
attr title "outgoing packet lengths"
attr unit b
vector 243 TargetNetwork.dds_switch.eth[1].phyLayer.phyHeaderInserter incomingPacketLengths:vector ETV
attr interpolationmode none
attr recordingmode vector
attr source "packetLength(merge(packetPushedIn, packetPulledIn))"
attr title "incoming packet lengths"
attr unit b
vector 244 TargetNetwork.dds_switch.eth[1].phyLayer.phyHeaderInserter outgoingPacketLengths:vector ETV
attr interpolationmode none
attr recordingmode vector
attr source "packetLength(merge(packetPushedOut, packetPulledOut))"
attr title "outgoing packet lengths"
attr unit b
vector 245 TargetNetwork.dds_switch.eth[1].phyLayer.outboundEmitter incomingPacketLengths:vector ETV
attr interpolationmode none
attr recordingmode vector
attr source "packetLength(merge(packetPushedIn, packetPulledIn))"
attr title "incoming packet lengths"
attr unit b
vector 246 TargetNetwork.dds_switch.eth[1].phyLayer.outboundEmitter outgoingPacketLengths:vector ETV
attr interpolationmode none
attr recordingmode vector
attr source "packetLength(merge(packetPushedOut, packetPulledOut))"
attr title "outgoing packet lengths"
attr unit b
vector 247 TargetNetwork.dds_switch.eth[2].macLayer.queue queueingTime:vector ETV
attr interpolationmode none
attr recordingmode vector
attr source queueingTime(packetPulled)
attr title "queueing times"
attr unit s
vector 248 TargetNetwork.dds_switch.eth[2].macLayer.queue outgoingPacketLengths:vector ETV
attr interpolationmode none
attr recordingmode vector
attr source packetLength(packetPulled)
attr title "outgoing packet lengths"
attr unit b
vector 249 TargetNetwork.dds_switch.eth[2].macLayer.server incomingPacketLengths:vector ETV
attr interpolationmode none
attr recordingmode vector
attr source packetLength(packetPulled)
attr title "incoming packet lengths"
attr unit b
vector 250 TargetNetwork.dds_switch.eth[2].macLayer.server outgoingPacketLengths:vector ETV
attr interpolationmode none
attr recordingmode vector
attr source packetLength(packetPushed)
attr title "outgoing packet lengths"
attr unit b
vector 251 TargetNetwork.dds_switch.eth[2].macLayer.outboundEmitter incomingPacketLengths:vector ETV
attr interpolationmode none
attr recordingmode vector
attr source "packetLength(merge(packetPushedIn, packetPulledIn))"
attr title "incoming packet lengths"
attr unit b
vector 252 TargetNetwork.dds_switch.eth[2].macLayer.outboundEmitter outgoingPacketLengths:vector ETV
attr interpolationmode none
attr recordingmode vector
attr source "packetLength(merge(packetPushedOut, packetPulledOut))"
attr title "outgoing packet lengths"
attr unit b
vector 253 TargetNetwork.dds_switch.eth[2].phyLayer.phyHeaderInserter incomingPacketLengths:vector ETV
attr interpolationmode none
attr recordingmode vector
attr source "packetLength(merge(packetPushedIn, packetPulledIn))"
attr title "incoming packet lengths"
attr unit b
vector 254 TargetNetwork.dds_switch.eth[2].phyLayer.phyHeaderInserter outgoingPacketLengths:vector ETV
attr interpolationmode none
attr recordingmode vector
attr source "packetLength(merge(packetPushedOut, packetPulledOut))"
attr title "outgoing packet lengths"
attr unit b
vector 255 TargetNetwork.dds_switch.eth[2].phyLayer.outboundEmitter incomingPacketLengths:vector ETV
attr interpolationmode none
attr recordingmode vector
attr source "packetLength(merge(packetPushedIn, packetPulledIn))"
attr title "incoming packet lengths"
attr unit b
vector 256 TargetNetwork.dds_switch.eth[2].phyLayer.outboundEmitter outgoingPacketLengths:vector ETV
attr interpolationmode none
attr recordingmode vector
attr source "packetLength(merge(packetPushedOut, packetPulledOut))"
attr title "outgoing packet lengths"
attr unit b
vector 257 TargetNetwork.dds_switch2.eth[0].macLayer.queue queueingTime:vector ETV
attr interpolationmode none
attr recordingmode vector
attr source queueingTime(packetPulled)
attr title "queueing times"
attr unit s
vector 258 TargetNetwork.dds_switch2.eth[0].macLayer.queue outgoingPacketLengths:vector ETV
attr interpolationmode none
attr recordingmode vector
attr source packetLength(packetPulled)
attr title "outgoing packet lengths"
attr unit b
vector 259 TargetNetwork.dds_switch2.eth[0].macLayer.server incomingPacketLengths:vector ETV
attr interpolationmode none
attr recordingmode vector
attr source packetLength(packetPulled)
attr title "incoming packet lengths"
attr unit b
vector 260 TargetNetwork.dds_switch2.eth[0].macLayer.server outgoingPacketLengths:vector ETV
attr interpolationmode none
attr recordingmode vector
attr source packetLength(packetPushed)
attr title "outgoing packet lengths"
attr unit b
vector 261 TargetNetwork.dds_switch2.eth[0].macLayer.outboundEmitter incomingPacketLengths:vector ETV
attr interpolationmode none
attr recordingmode vector
attr source "packetLength(merge(packetPushedIn, packetPulledIn))"
attr title "incoming packet lengths"
attr unit b
vector 262 TargetNetwork.dds_switch2.eth[0].macLayer.outboundEmitter outgoingPacketLengths:vector ETV
attr interpolationmode none
attr recordingmode vector
attr source "packetLength(merge(packetPushedOut, packetPulledOut))"
attr title "outgoing packet lengths"
attr unit b
vector 263 TargetNetwork.dds_switch2.eth[0].phyLayer.phyHeaderInserter incomingPacketLengths:vector ETV
attr interpolationmode none
attr recordingmode vector
attr source "packetLength(merge(packetPushedIn, packetPulledIn))"
attr title "incoming packet lengths"
attr unit b
vector 264 TargetNetwork.dds_switch2.eth[0].phyLayer.phyHeaderInserter outgoingPacketLengths:vector ETV
attr interpolationmode none
attr recordingmode vector
attr source "packetLength(merge(packetPushedOut, packetPulledOut))"
attr title "outgoing packet lengths"
attr unit b
vector 265 TargetNetwork.dds_switch2.eth[0].phyLayer.outboundEmitter incomingPacketLengths:vector ETV
attr interpolationmode none
attr recordingmode vector
attr source "packetLength(merge(packetPushedIn, packetPulledIn))"
attr title "incoming packet lengths"
attr unit b
vector 266 TargetNetwork.dds_switch2.eth[0].phyLayer.outboundEmitter outgoingPacketLengths:vector ETV
attr interpolationmode none
attr recordingmode vector
attr source "packetLength(merge(packetPushedOut, packetPulledOut))"
attr title "outgoing packet lengths"
attr unit b
vector 267 TargetNetwork.dds_switch2.eth[1].macLayer.queue queueingTime:vector ETV
attr interpolationmode none
attr recordingmode vector
attr source queueingTime(packetPulled)
attr title "queueing times"
attr unit s
vector 268 TargetNetwork.dds_switch2.eth[1].macLayer.queue outgoingPacketLengths:vector ETV
attr interpolationmode none
attr recordingmode vector
attr source packetLength(packetPulled)
attr title "outgoing packet lengths"
attr unit b
vector 269 TargetNetwork.dds_switch2.eth[1].macLayer.server incomingPacketLengths:vector ETV
attr interpolationmode none
attr recordingmode vector
attr source packetLength(packetPulled)
attr title "incoming packet lengths"
attr unit b
vector 270 TargetNetwork.dds_switch2.eth[1].macLayer.server outgoingPacketLengths:vector ETV
attr interpolationmode none
attr recordingmode vector
attr source packetLength(packetPushed)
attr title "outgoing packet lengths"
attr unit b
vector 271 TargetNetwork.dds_switch2.eth[1].macLayer.outboundEmitter incomingPacketLengths:vector ETV
attr interpolationmode none
attr recordingmode vector
attr source "packetLength(merge(packetPushedIn, packetPulledIn))"
attr title "incoming packet lengths"
attr unit b
vector 272 TargetNetwork.dds_switch2.eth[1].macLayer.outboundEmitter outgoingPacketLengths:vector ETV
attr interpolationmode none
attr recordingmode vector
attr source "packetLength(merge(packetPushedOut, packetPulledOut))"
attr title "outgoing packet lengths"
attr unit b
vector 273 TargetNetwork.dds_switch2.eth[1].phyLayer.phyHeaderInserter incomingPacketLengths:vector ETV
attr interpolationmode none
attr recordingmode vector
attr source "packetLength(merge(packetPushedIn, packetPulledIn))"
attr title "incoming packet lengths"
attr unit b
vector 274 TargetNetwork.dds_switch2.eth[1].phyLayer.phyHeaderInserter outgoingPacketLengths:vector ETV
attr interpolationmode none
attr recordingmode vector
attr source "packetLength(merge(packetPushedOut, packetPulledOut))"
attr title "outgoing packet lengths"
attr unit b
vector 275 TargetNetwork.dds_switch2.eth[1].phyLayer.outboundEmitter incomingPacketLengths:vector ETV
attr interpolationmode none
attr recordingmode vector
attr source "packetLength(merge(packetPushedIn, packetPulledIn))"
attr title "incoming packet lengths"
attr unit b
vector 276 TargetNetwork.dds_switch2.eth[1].phyLayer.outboundEmitter outgoingPacketLengths:vector ETV
attr interpolationmode none
attr recordingmode vector
attr source "packetLength(merge(packetPushedOut, packetPulledOut))"
attr title "outgoing packet lengths"
attr unit b
vector 277 TargetNetwork.dds_switch2.eth[2].macLayer.queue queueingTime:vector ETV
attr interpolationmode none
attr recordingmode vector
attr source queueingTime(packetPulled)
attr title "queueing times"
attr unit s
vector 278 TargetNetwork.dds_switch2.eth[2].macLayer.queue outgoingPacketLengths:vector ETV
attr interpolationmode none
attr recordingmode vector
attr source packetLength(packetPulled)
attr title "outgoing packet lengths"
attr unit b
vector 279 TargetNetwork.dds_switch2.eth[2].macLayer.server incomingPacketLengths:vector ETV
attr interpolationmode none
attr recordingmode vector
attr source packetLength(packetPulled)
attr title "incoming packet lengths"
attr unit b
vector 280 TargetNetwork.dds_switch2.eth[2].macLayer.server outgoingPacketLengths:vector ETV
attr interpolationmode none
attr recordingmode vector
attr source packetLength(packetPushed)
attr title "outgoing packet lengths"
attr unit b
vector 281 TargetNetwork.dds_switch2.eth[2].macLayer.outboundEmitter incomingPacketLengths:vector ETV
attr interpolationmode none
attr recordingmode vector
attr source "packetLength(merge(packetPushedIn, packetPulledIn))"
attr title "incoming packet lengths"
attr unit b
vector 282 TargetNetwork.dds_switch2.eth[2].macLayer.outboundEmitter outgoingPacketLengths:vector ETV
attr interpolationmode none
attr recordingmode vector
attr source "packetLength(merge(packetPushedOut, packetPulledOut))"
attr title "outgoing packet lengths"
attr unit b
vector 283 TargetNetwork.dds_switch2.eth[2].phyLayer.phyHeaderInserter incomingPacketLengths:vector ETV
attr interpolationmode none
attr recordingmode vector
attr source "packetLength(merge(packetPushedIn, packetPulledIn))"
attr title "incoming packet lengths"
attr unit b
vector 284 TargetNetwork.dds_switch2.eth[2].phyLayer.phyHeaderInserter outgoingPacketLengths:vector ETV
attr interpolationmode none
attr recordingmode vector
attr source "packetLength(merge(packetPushedOut, packetPulledOut))"
attr title "outgoing packet lengths"
attr unit b
vector 285 TargetNetwork.dds_switch2.eth[2].phyLayer.outboundEmitter incomingPacketLengths:vector ETV
attr interpolationmode none
attr recordingmode vector
attr source "packetLength(merge(packetPushedIn, packetPulledIn))"
attr title "incoming packet lengths"
attr unit b
vector 286 TargetNetwork.dds_switch2.eth[2].phyLayer.outboundEmitter outgoingPacketLengths:vector ETV
attr interpolationmode none
attr recordingmode vector
attr source "packetLength(merge(packetPushedOut, packetPulledOut))"
attr title "outgoing packet lengths"
attr unit b
vector 287 TargetNetwork.dds_cpu5.eth[0].mac rxPkOk:vector(packetBytes) ETV
attr interpolationmode none
attr recordingmode vector(packetBytes)
attr source rxPkOk
attr title "packets received OK, packetBytes"
vector 288 TargetNetwork.dds_cpu5.eth[0].mac passedUpPk:vector(packetBytes) ETV
attr interpolationmode none
attr recordingmode vector(packetBytes)
attr source packetSentToUpper
attr title "packets passed to higher layer, packetBytes"
vector 289 TargetNetwork.dds_switch.eth[3].phyLayer.transmitter transmissionTime:vector ETV
attr interpolationmode none
attr recordingmode vector
attr source packetDuration(transmissionEnded)
attr title "transmission time"
attr unit s
vector 290 TargetNetwork.dds_cpu5.eth[1].mac rxPkOk:vector(packetBytes) ETV
attr interpolationmode none
attr recordingmode vector(packetBytes)
attr source rxPkOk
attr title "packets received OK, packetBytes"
vector 291 TargetNetwork.dds_cpu5.eth[1].mac passedUpPk:vector(packetBytes) ETV
attr interpolationmode none
attr recordingmode vector(packetBytes)
attr source packetSentToUpper
attr title "packets passed to higher layer, packetBytes"
vector 292 TargetNetwork.dds_switch2.eth[3].phyLayer.transmitter transmissionTime:vector ETV
attr interpolationmode none
attr recordingmode vector
attr source packetDuration(transmissionEnded)
attr title "transmission time"
attr unit s
vector 293 TargetNetwork.dds_cpu.eth[0].mac rxPkOk:vector(packetBytes) ETV
attr interpolationmode none
attr recordingmode vector(packetBytes)
attr source rxPkOk
attr title "packets received OK, packetBytes"
vector 294 TargetNetwork.dds_cpu.eth[0].mac passedUpPk:vector(packetBytes) ETV
attr interpolationmode none
attr recordingmode vector(packetBytes)
attr source packetSentToUpper
attr title "packets passed to higher layer, packetBytes"
vector 295 TargetNetwork.dds_switch.eth[0].phyLayer.transmitter transmissionTime:vector ETV
attr interpolationmode none
attr recordingmode vector
attr source packetDuration(transmissionEnded)
attr title "transmission time"
attr unit s
vector 296 TargetNetwork.dds_cpu3.eth[0].mac rxPkOk:vector(packetBytes) ETV
attr interpolationmode none
attr recordingmode vector(packetBytes)
attr source rxPkOk
attr title "packets received OK, packetBytes"
vector 297 TargetNetwork.dds_cpu3.eth[0].mac passedUpPk:vector(packetBytes) ETV
attr interpolationmode none
attr recordingmode vector(packetBytes)
attr source packetSentToUpper
attr title "packets passed to higher layer, packetBytes"
vector 298 TargetNetwork.dds_switch.eth[1].phyLayer.transmitter transmissionTime:vector ETV
attr interpolationmode none
attr recordingmode vector
attr source packetDuration(transmissionEnded)
attr title "transmission time"
attr unit s
vector 299 TargetNetwork.dds_cpu4.eth[0].mac rxPkOk:vector(packetBytes) ETV
attr interpolationmode none
attr recordingmode vector(packetBytes)
attr source rxPkOk
attr title "packets received OK, packetBytes"
vector 300 TargetNetwork.dds_cpu4.eth[0].mac passedUpPk:vector(packetBytes) ETV
attr interpolationmode none
attr recordingmode vector(packetBytes)
attr source packetSentToUpper
attr title "packets passed to higher layer, packetBytes"
vector 301 TargetNetwork.dds_switch.eth[2].phyLayer.transmitter transmissionTime:vector ETV
attr interpolationmode none
attr recordingmode vector
attr source packetDuration(transmissionEnded)
attr title "transmission time"
attr unit s
vector 302 TargetNetwork.dds_cpu2.eth[0].mac rxPkOk:vector(packetBytes) ETV
attr interpolationmode none
attr recordingmode vector(packetBytes)
attr source rxPkOk
attr title "packets received OK, packetBytes"
vector 303 TargetNetwork.dds_cpu2.eth[0].mac passedUpPk:vector(packetBytes) ETV
attr interpolationmode none
attr recordingmode vector(packetBytes)
attr source packetSentToUpper
attr title "packets passed to higher layer, packetBytes"
vector 304 TargetNetwork.dds_switch2.eth[0].phyLayer.transmitter transmissionTime:vector ETV
attr interpolationmode none
attr recordingmode vector
attr source packetDuration(transmissionEnded)
attr title "transmission time"
attr unit s
vector 305 TargetNetwork.dds_cpu3.eth[1].mac rxPkOk:vector(packetBytes) ETV
attr interpolationmode none
attr recordingmode vector(packetBytes)
attr source rxPkOk
attr title "packets received OK, packetBytes"
vector 306 TargetNetwork.dds_cpu3.eth[1].mac passedUpPk:vector(packetBytes) ETV
attr interpolationmode none
[...]
234	165272 70 96 224 0.00000592 0.00001968 3 592 592 1776 1051392
235	165342 70 96 224 0.00000592 0.00001968 3 592 592 1776 1051392
236	165412 70 96 224 0.00000592 0.00001968 3 592 592 1776 1051392
237	165482 497 97 646 0.00000592 0.752937106812 18 0 7.104e-05 0.00029104 2.02340608e-08
238	165979 522 97 646 0.00000592 0.752937106812 18 528 12144 166944 1871884800
239	166501 522 97 646 0.00000592 0.752937106812 18 528 12144 166944 1871884800
240	167023 522 97 646 0.00000592 0.752937106812 18 528 12144 166944 1871884800
241	167545 522 97 646 0.00000592 0.752937106812 18 528 12144 166944 1871884800
242	168067 522 97 646 0.00000592 0.752937106812 18 528 12144 166944 1871884800
243	168589 522 97 646 0.00000592 0.752937106812 18 528 12144 166944 1871884800
244	169111 522 97 646 0.00000592 0.752937106812 18 592 12208 168096 1893327360
245	169633 522 97 646 0.00000592 0.752937106812 18 592 12208 168096 1893327360
246	170155 522 97 646 0.00000592 0.752937106812 18 592 12208 168096 1893327360
247	170677 49 98 165 0.00000592 0.0000128 2 0 6.88e-06 6.88e-06 4.73344e-11
248	170726 46 98 165 0.00000592 0.0000128 2 528 528 1056 557568
249	170772 46 98 165 0.00000592 0.0000128 2 528 528 1056 557568
250	170818 46 98 165 0.00000592 0.0000128 2 528 528 1056 557568
251	170864 46 98 165 0.00000592 0.0000128 2 528 528 1056 557568
252	170910 46 98 165 0.00000592 0.0000128 2 528 528 1056 557568
253	170956 46 98 165 0.00000592 0.0000128 2 528 528 1056 557568
254	171002 46 98 165 0.00000592 0.0000128 2 592 592 1184 700928
255	171048 46 98 165 0.00000592 0.0000128 2 592 592 1184 700928
256	171094 46 98 165 0.00000592 0.0000128 2 592 592 1184 700928
257	171140 79 99 227 0.00000592 0.00001968 3 0 1.376e-05 2.064e-05 2.36672e-10
258	171219 70 99 227 0.00000592 0.00001968 3 528 528 1584 836352
259	171289 70 99 227 0.00000592 0.00001968 3 528 528 1584 836352
260	171359 70 99 227 0.00000592 0.00001968 3 528 528 1584 836352
261	171429 70 99 227 0.00000592 0.00001968 3 528 528 1584 836352
262	171499 70 99 227 0.00000592 0.00001968 3 528 528 1584 836352
263	171569 70 99 227 0.00000592 0.00001968 3 528 528 1584 836352
264	171639 70 99 227 0.00000592 0.00001968 3 592 592 1776 1051392
265	171709 70 99 227 0.00000592 0.00001968 3 592 592 1776 1051392
266	171779 70 99 227 0.00000592 0.00001968 3 592 592 1776 1051392
267	171849 50 100 167 0.00000592 0.0000128 2 0 6.88e-06 6.88e-06 4.73344e-11
268	171899 47 100 167 0.00000592 0.0000128 2 528 528 1056 557568
269	171946 47 100 167 0.00000592 0.0000128 2 528 528 1056 557568
270	171993 47 100 167 0.00000592 0.0000128 2 528 528 1056 557568
271	172040 47 100 167 0.00000592 0.0000128 2 528 528 1056 557568
272	172087 47 100 167 0.00000592 0.0000128 2 528 528 1056 557568
273	172134 47 100 167 0.00000592 0.0000128 2 528 528 1056 557568
274	172181 47 100 167 0.00000592 0.0000128 2 592 592 1184 700928
275	172228 47 100 167 0.00000592 0.0000128 2 592 592 1184 700928
276	172275 47 100 167 0.00000592 0.0000128 2 592 592 1184 700928
277	172322 128 101 670 0.00000592 0.942026307289 5 0 6.88e-06 6.88e-06 4.73344e-11
278	172450 134 101 670 0.00000592 0.942026307289 5 528 8368 26160 210627840
279	172584 134 101 670 0.00000592 0.942026307289 5 528 8368 26160 210627840
280	172718 134 101 670 0.00000592 0.942026307289 5 528 8368 26160 210627840
281	172852 134 101 670 0.00000592 0.942026307289 5 528 8368 26160 210627840
282	172986 134 101 670 0.00000592 0.942026307289 5 528 8368 26160 210627840
283	173120 134 101 670 0.00000592 0.942026307289 5 528 8368 26160 210627840
284	173254 134 101 670 0.00000592 0.942026307289 5 592 8432 26480 213996800
285	173388 134 101 670 0.00000592 0.942026307289 5 592 8432 26480 213996800
286	173522 134 101 670 0.00000592 0.942026307289 5 592 8432 26480 213996800
287	173656 46 108 169 0.00001184 0.00001872 2 66 66 132 8712
288	173702 46 108 169 0.00001184 0.00001872 2 66 66 132 8712
289	173748 58 109 170 0.00001184 0.00001872 2 5.92e-06 5.92e-06 1.184e-05 7.00928e-11
290	173806 133 110 687 0.00001184 0.942195907289 5 66 1046 3270 3291060
291	173939 133 110 687 0.00001184 0.942195907289 5 66 1046 3270 3291060
292	174072 160 111 688 0.00001184 0.942195907289 5 5.92e-06 8.432e-05 0.0002648 2.139968e-08
293	174232 68 112 230 0.00001184 0.0000256 3 66 66 198 13068
294	174300 68 112 230 0.00001184 0.0000256 3 66 66 198 13068
295	174368 86 113 231 0.00001184 0.0000256 3 5.92e-06 5.92e-06 1.776e-05 1.051392e-10
296	174454 506 114 647 0.00001184 0.752988146812 18 66 1518 20868 29248200
297	174960 506 114 647 0.00001184 0.752988146812 18 66 1518 20868 29248200
298	175466 614 115 648 0.00001184 0.752988146812 18 5.92e-06 0.00012208 0.00168096 1.89332736e-07
299	176080 46 116 177 0.00001184 0.00001872 2 66 66 132 8712
300	176126 46 116 177 0.00001184 0.00001872 2 66 66 132 8712
301	176172 58 117 178 0.00001184 0.00001872 2 5.92e-06 5.92e-06 1.184e-05 7.00928e-11
302	176230 68 118 232 0.00001184 0.0000256 3 66 66 198 13068
303	176298 68 118 232 0.00001184 0.0000256 3 66 66 198 13068
304	176366 86 119 233 0.00001184 0.0000256 3 5.92e-06 5.92e-06 1.776e-05 1.051392e-10
305	176452 46 120 181 0.00001184 0.00001872 2 66 66 132 8712
306	176498 46 120 181 0.00001184 0.00001872 2 66 66 132 8712
307	176544 58 121 182 0.00001184 0.00001872 2 5.92e-06 5.92e-06 1.184e-05 7.00928e-11
308	176602 133 122 672 0.00001184 0.942110627289 5 66 1046 3270 3291060
309	176735 133 122 672 0.00001184 0.942110627289 5 66 1046 3270 3291060
310	176868 160 123 673 0.00001184 0.942110627289 5 5.92e-06 8.432e-05 0.0002648 2.139968e-08
311	177028 179 124 689 0.00001184 0.942195907289 7 48 1028 3276 3179568
312	177207 68 126 234 0.00001184 0.0000256 3 48 48 144 6912
313	177275 552 127 649 0.00001184 0.752988146812 20 48 1500 20640 28507392
314	177827 179 128 674 0.00001184 0.942110627289 7 48 1028 3276 3179568
315	178006 68 129 235 0.00001184 0.0000256 3 48 48 144 6912
316	178074 68 142 238 0.00001184 0.0000256 3 28 28 84 2352
317	178142 68 145 239 0.00001184 0.0000256 3 28 28 84 2352
318	178210 173 249 696 0.1 1 10 0 400000 2000000 800000000000
319	178383 460 254 583 0.159174900913 0.752445906812 16 592 1480 20128 27686656
320	178843 460 262 591 0.159174900913 0.752445906812 16 612 1500 20448 28498176
321	179303 476 266 595 0.159174900913 0.752445906812 16 5040 12144 165888 1871327232
322	179779 168 266 696 0.1 1 10 0 414720 1658880 687970713600
323	179947 832 266 631 0.159174900913 0.752815026812 32 0 3 40 80
324	180779 524 266 631 0.159174900913 0.752815026812 16 0 0.00036912 0.00295296 8.477751296e-07
325	181303 476 266 631 0.159174900913 0.752815026812 16 5040 12144 165888 1871327232
326	181779 168 266 696 0.1 1 10 0 414720 1658880 687970713600
327	181947 460 266 631 0.159174900913 0.752815026812 16 630 1518 20736 29239488
328	182407 728 266 631 0.159174900913 0.752815026812 28 0 3 36 76
329	183135 804 266 631 0.159174900913 0.752815026812 28 0 29328 351936 7672826880
330	183939 168 270 696 0.1 1 10 0 417280 1669120 696490393600
331	184107 556 270 632 0.159296980913 0.752866066812 16 5.104e-05 0.00012208 0.00166912 1.892626432e-07
332	184663 476 270 632 0.159296980913 0.752866066812 16 5104 12208 166912 1892626432
333	185139 120 270 596 0.1 0.7 7 0 417280 1251840 522367795200
334	185259 476 270 632 0.159296980913 0.752866066812 16 5104 12208 166912 1892626432
335	185735 120 270 596 0.1 0.7 7 0 417280 1251840 522367795200
336	185855 476 270 632 0.159296980913 0.752866066812 16 5104 12208 166912 1892626432
337	186331 120 270 596 0.1 0.7 7 0 417280 1251840 522367795200
338	186451 476 270 632 0.159296980913 0.752866066812 16 5040 12144 165888 1871327232
339	186927 120 270 596 0.1 0.7 7 0 414720 1244160 515978035200
340	187047 476 270 632 0.159296980913 0.752866066812 16 5040 12144 165888 1871327232
341	187523 120 270 596 0.1 0.7 7 0 414720 1244160 515978035200
342	187643 476 270 632 0.159296980913 0.752866066812 16 5040 12144 165888 1871327232
343	188119 120 270 596 0.1 0.7 7 0 414720 1244160 515978035200
344	188239 476 270 632 0.159296980913 0.752866066812 16 5040 12144 165888 1871327232
345	188715 120 270 596 0.1 0.7 7 0 414720 1244160 515978035200
346	188835 476 270 632 0.159296980913 0.752866066812 16 5040 12144 165888 1871327232
347	189311 120 270 596 0.1 0.7 7 0 414720 1244160 515978035200
348	189431 124 270 596 0.1 0.7 7 0 414720 1260000 516228940800
349	189555 124 270 596 0.1 0.7 7 0 413440 1255200 513019315200
350	189679 124 270 596 0.1 0.7 7 0 413440 1255200 513019315200
351	189803 124 270 596 0.1 0.7 7 0 408960 1238400 501877555200
352	189927 460 271 633 0.159296980913 0.752866066812 16 630 1518 20736 29239488
353	190387 124 273 599 0.1 0.7 7 0 408960 1261440 502939238400
354	190511 124 273 599 0.1 0.7 7 0 413440 1284960 514790630400
355	190635 124 273 599 0.1 0.7 7 0 413440 1284960 514790630400
356	190759 124 273 599 0.1 0.7 7 0 413440 1284960 514790630400
357	190883 124 273 599 0.1 0.7 7 0 413440 1284960 514790630400
358	191007 124 273 599 0.1 0.7 7 0 414720 1291680 518236185600
359	191131 172 273 696 0.1 1 10 0 414720 1669440 688082227200
360	191303 172 274 696 0.1 1 10 0 414720 1669440 688082227200
361	191475 172 274 696 0.1 1 10 0 414720 1669440 688082227200
362	191647 172 274 696 0.1 1 10 0 414720 1669440 688082227200
363	191819 124 274 600 0.1 0.7 7 0 414720 1254720 516089548800
364	191943 124 274 600 0.1 0.7 7 0 414720 1254720 516089548800
365	192067 124 274 600 0.1 0.7 7 0 414720 1254720 516089548800
366	192191 124 274 600 0.1 0.7 7 0 417280 1263680 522507980800
367	192315 124 274 600 0.1 0.7 7 0 417280 1263680 522507980800
368	192439 124 274 600 0.1 0.7 7 0 417280 1263680 522507980800
369	192563 129 274 600 0.1 0.7 7 0 0.41728 1.26368 0.5225079808
370	192692 172 277 696 0.1 1 10 0 417280 1680960 696630579200
371	192864 460 281 652 0.159419060913 0.752988146812 16 584 1472 20000 27365632
372	193324 476 282 653 0.159419060913 0.752988146812 16 4672 11776 160000 1751400448
373	193800 168 282 696 0.1 1 10 0 400000 1600000 640000000000
374	193968 556 282 653 0.159419060913 0.752988146812 16 0.00024416 0.00054224 0.00657536 2.9152376832e-06
375	194524 476 282 653 0.159419060913 0.752988146812 16 4672 11776 160000 1751400448
376	195000 168 282 696 0.1 1 10 0 400000 1600000 640000000000
377	195168 521 298 653 0.159419060913 0.752936146812 15 0.00024416 0.00054224 0.00603312 2.6212134656e-06
378	195689 519 298 653 0.159419060913 0.752936146812 15 -0.00029808 0.00024416 0.00049024 4.553918976e-07
379	196208 567 298 653 0.159419060913 0.752936146812 15 -0.00013128 0.00015396923076923 -0.00035991426706627 1.6121849789721e-07
380	196775 641 298 653 0.159419060913 0.752936146812 15 0 0.00012289404280233 0.0015521551333383 1.7505810732998e-07
381	197416 164 331 696 0.1 1 10 0 80000 320000 25600000000
382	197580 174 333 659 0.179712077697 0.941941987289 6 1008 1008 6048 6096384
383	197754 174 337 663 0.179712077697 0.941941987289 6 1028 1028 6168 6340704
384	197928 174 339 665 0.179712077697 0.941941987289 6 8368 8368 50208 420140544
385	198102 163 339 696 0.1 1 10 0 167360 502080 84028108800
386	198265 312 339 671 0.179712077697 0.942027267289 12 0 1 6 6
387	198577 180 339 671 0.179712077697 0.942027267289 6 0 8.528e-05 0.00025584 2.18180352e-08
388	198757 174 339 671 0.179712077697 0.942027267289 6 8368 8368 50208 420140544
389	198931 163 339 696 0.1 1 10 0 167360 502080 84028108800
390	199094 174 339 671 0.179712077697 0.942027267289 6 1046 1046 6276 6564696
391	199268 234 339 671 0.179712077697 0.942027267289 9 0 1 3 3
392	199502 243 339 671 0.179712077697 0.942027267289 9 0 8368 25104 210070272
393	199745 163 341 696 0.1 1 10 0 168640 505920 85318348800
394	199908 204 341 679 0.179796397697 0.942111587289 6 8.432e-05 8.432e-05 0.00050592 4.26591744e-08
395	200112 174 341 679 0.179796397697 0.942111587289 6 8432 8432 50592 426591744
396	200286 145 341 666 0.1 0.9 9 0 168640 337280 56878899200
397	200431 174 341 679 0.179796397697 0.942111587289 6 8432 8432 50592 426591744
398	200605 145 341 666 0.1 0.9 9 0 168640 337280 56878899200
399	200750 174 341 679 0.179796397697 0.942111587289 6 8432 8432 50592 426591744
400	200924 145 341 666 0.1 0.9 9 0 168640 337280 56878899200
401	201069 174 341 679 0.179796397697 0.942111587289 6 8368 8368 50208 420140544
402	201243 145 341 666 0.1 0.9 9 0 167360 334720 56018739200
403	201388 174 341 679 0.179796397697 0.942111587289 6 8368 8368 50208 420140544
404	201562 145 341 666 0.1 0.9 9 0 167360 334720 56018739200
405	201707 174 341 679 0.179796397697 0.942111587289 6 8368 8368 50208 420140544
406	201881 145 341 666 0.1 0.9 9 0 167360 334720 56018739200
407	202026 174 341 679 0.179796397697 0.942111587289 6 8368 8368 50208 420140544
408	202200 145 341 666 0.1 0.9 9 0 167360 334720 56018739200
409	202345 174 341 679 0.179796397697 0.942111587289 6 8368 8368 50208 420140544
410	202519 145 341 666 0.1 0.9 9 0 167360 334720 56018739200
411	202664 149 341 666 0.1 0.9 9 0 167360 350560 56269644800
412	202813 149 341 666 0.1 0.9 9 0 166720 348320 55812531200
413	202962 149 341 666 0.1 0.9 9 0 166720 348320 55812531200
414	203111 149 341 666 0.1 0.9 9 0 164480 340480 54240051200
415	203260 174 342 680 0.179796397697 0.942111587289 6 1046 1046 6276 6564696
416	203434 149 344 669 0.1 0.9 9 0 164480 363520 55301734400
417	203583 149 344 669 0.1 0.9 9 0 166720 378080 57583846400
418	203732 149 344 669 0.1 0.9 9 0 166720 378080 57583846400
419	203881 149 344 669 0.1 0.9 9 0 166720 378080 57583846400
420	204030 149 344 669 0.1 0.9 9 0 166720 378080 57583846400
421	204179 149 344 669 0.1 0.9 9 0 167360 382240 58276889600
422	204328 164 344 696 0.1 1 10 0 83680 261600 21118540800
423	204492 164 345 696 0.1 1 10 0 83680 261600 21118540800
424	204656 164 345 696 0.1 1 10 0 83680 261600 21118540800
425	204820 164 345 696 0.1 1 10 0 83680 261600 21118540800
426	204984 147 345 670 0.1 0.9 9 0 83680 177920 14116198400
427	205131 147 345 670 0.1 0.9 9 0 83680 177920 14116198400
428	205278 147 345 670 0.1 0.9 9 0 83680 177920 14116198400
429	205425 147 345 670 0.1 0.9 9 0 84320 180480 14359910400
430	205572 147 345 670 0.1 0.9 9 0 84320 180480 14359910400
431	205719 147 345 670 0.1 0.9 9 0 84320 180480 14359910400
432	205866 153 345 670 0.1 0.9 9 0 0.08432 0.18048 0.0143599104
433	206019 164 348 696 0.1 1 10 0 84320 264800 21469772800
434	206183 87 352 677 0.179880717697 0.942110627289 3 1000 1000 3000 3000000
435	206270 87 353 678 0.179880717697 0.942110627289 3 8000 8000 24000 192000000
436	206357 160 353 696 0.1 1 10 0 80000 240000 19200000000
437	206517 105 353 678 0.179880717697 0.942110627289 3 0.00016864 0.00016864 0.00050592 8.53183488e-08
438	206622 87 353 678 0.179880717697 0.942110627289 3 8000 8000 24000 192000000
439	206709 160 353 696 0.1 1 10 0 80000 240000 19200000000
440	206869 164 360 696 0.1 1 10 0 83680 261600 21118540800
441	207033 164 361 696 0.1 1 10 0 83680 261600 21118540800
442	207197 164 361 696 0.1 1 10 0 83680 261600 21118540800
443	207361 164 361 696 0.1 1 10 0 83680 261600 21118540800
444	207525 147 361 685 0.1 0.9 9 0 83680 177920 14116198400
445	207672 147 361 685 0.1 0.9 9 0 83680 177920 14116198400
446	207819 147 361 685 0.1 0.9 9 0 83680 177920 14116198400
447	207966 147 361 685 0.1 0.9 9 0 84320 180480 14359910400
448	208113 147 361 685 0.1 0.9 9 0 84320 180480 14359910400
449	208260 147 361 685 0.1 0.9 9 0 84320 180480 14359910400
450	208407 153 361 685 0.1 0.9 9 0 0.08432 0.18048 0.0143599104
451	208560 164 364 696 0.1 1 10 0 84320 264800 21469772800
452	208724 87 368 692 0.179965997697 0.942195907289 3 1000 1000 3000 3000000
453	208811 87 369 693 0.179965997697 0.942195907289 3 8000 8000 24000 192000000
454	208898 160 369 696 0.1 1 10 0 80000 240000 19200000000
455	209058 105 369 693 0.179965997697 0.942195907289 3 0.00025392 0.00025392 0.00076176 1.934260992e-07
456	209163 87 369 693 0.179965997697 0.942195907289 3 8000 8000 24000 192000000
457	209250 160 369 696 0.1 1 10 0 80000 240000 19200000000
458	209410 70 476 678 0.179880717697 0.551801560112 2 0.00016864 0.00016864 0.00033728 5.68788992e-08
459	209480 61 476 678 0.179880717697 0.551801560112 2 0 0.00016864 0.00016864 2.84394496e-08
460	209541 52 476 678 0.179880717697 0.551801560112 2 0 0 0 0
461	209593 52 476 678 0.179880717697 0.551801560112 2 0 0 0 0
462	209645 70 491 693 0.179965997697 0.551886840112 2 0.00025392 0.00025392 0.00050784 1.289507328e-07
463	209715 61 491 693 0.179965997697 0.551886840112 2 0 0.00025392 0.00025392 6.44753664e-08
464	209776 52 491 693 0.179965997697 0.551886840112 2 0 0 0 0
465	209828 52 491 693 0.179965997697 0.551886840112 2 0 0 0 0
466	209880 151 696 696 0.1 1 10 0 5280 5280 27878400
467	210031 151 696 696 0.1 1 10 0 5280 5280 27878400
468	210182 151 696 696 0.1 1 10 0 5280 5280 27878400
469	210333 151 696 696 0.1 1 10 0 5280 5280 27878400
470	210484 151 696 696 0.1 1 10 0 1600 1600 2560000
471	210635 151 696 696 0.1 1 10 0 5280 5280 27878400
472	210786 151 696 696 0.1 1 10 0 5280 5280 27878400
473	210937 151 696 696 0.1 1 10 0 5280 5280 27878400
474	211088 151 696 696 0.1 1 10 0 5280 5280 27878400
475	211239 151 696 696 0.1 1 10 0 1600 1600 2560000
476	211390 151 696 696 0.1 1 10 0 5280 5280 27878400
477	211541 151 696 696 0.1 1 10 0 5280 5280 27878400
478	211692 151 696 696 0.1 1 10 0 5280 5280 27878400
479	211843 151 696 696 0.1 1 10 0 5280 5280 27878400
480	211994 151 696 696 0.1 1 10 0 1600 1600 2560000
481	212145 148 696 696 0.1 1 10 0 0 0 0
482	212293 148 696 696 0.1 1 10 0 0 0 0
483	212441 148 696 696 0.1 1 10 0 0 0 0
484	212589 148 696 696 0.1 1 10 0 0 0 0
485	212737 152 696 696 0.1 1 10 0 15840 15840 250905600
486	212889 152 696 696 0.1 1 10 0 15840 15840 250905600
487	213041 152 696 696 0.1 1 10 0 15840 15840 250905600
488	213193 152 696 696 0.1 1 10 0 15840 15840 250905600
489	213345 148 696 696 0.1 1 10 0 0 0 0
490	213493 152 696 696 0.1 1 10 0 17760 17760 315417600
491	213645 148 696 696 0.1 1 10 0 0 0 0
492	213793 148 696 696 0.1 1 10 0 0 0 0
493	213941 148 696 696 0.1 1 10 0 0 0 0
494	214089 151 696 696 0.1 1 10 0 5920 5920 35046400
495	214240 152 696 696 0.1 1 10 0 10560 10560 111513600
496	214392 152 696 696 0.1 1 10 0 10560 10560 111513600
497	214544 152 696 696 0.1 1 10 0 10560 10560 111513600
498	214696 152 696 696 0.1 1 10 0 10560 10560 111513600
499	214848 148 696 696 0.1 1 10 0 0 0 0
500	214996 152 696 696 0.1 1 10 0 11840 11840 140185600
501	215148 148 696 696 0.1 1 10 0 0 0 0
502	215296 151 696 696 0.1 1 10 0 5920 5920 35046400
503	215447 152 696 696 0.1 1 10 0 10560 10560 111513600
504	215599 152 696 696 0.1 1 10 0 10560 10560 111513600
505	215751 152 696 696 0.1 1 10 0 10560 10560 111513600
506	215903 152 696 696 0.1 1 10 0 10560 10560 111513600
507	216055 148 696 696 0.1 1 10 0 0 0 0
508	216203 152 696 696 0.1 1 10 0 11840 11840 140185600
509	216355 148 696 696 0.1 1 10 0 0 0 0
510	216503 151 696 696 0.1 1 10 0 5920 5920 35046400
511	216654 148 696 696 0.1 1 10 0 0 0 0
512	216802 148 696 696 0.1 1 10 0 0 0 0
513	216950 148 696 696 0.1 1 10 0 0 0 0
514	217098 148 696 696 0.1 1 10 0 0 0 0
515	217246 152 696 696 0.1 1 10 0 15840 15840 250905600
516	217398 152 696 696 0.1 1 10 0 15840 15840 250905600
517	217550 152 696 696 0.1 1 10 0 15840 15840 250905600
518	217702 152 696 696 0.1 1 10 0 15840 15840 250905600
519	217854 148 696 696 0.1 1 10 0 0 0 0
520	218002 152 696 696 0.1 1 10 0 17760 17760 315417600
521	218154 148 696 696 0.1 1 10 0 0 0 0
522	218302 152 696 696 0.1 1 10 0 10560 10560 111513600
523	218454 152 696 696 0.1 1 10 0 10560 10560 111513600
524	218606 152 696 696 0.1 1 10 0 10560 10560 111513600
525	218758 152 696 696 0.1 1 10 0 10560 10560 111513600
526	218910 148 696 696 0.1 1 10 0 0 0 0
527	219058 152 696 696 0.1 1 10 0 11840 11840 140185600
528	219210 148 696 696 0.1 1 10 0 0 0 0
529	219358 151 696 696 0.1 1 10 0 5920 5920 35046400
530	219509 148 696 696 0.1 1 10 0 0 0 0
531	219657 148 696 696 0.1 1 10 0 0 0 0
532	219805 151 696 696 0.1 1 10 0 5920 5920 35046400
533	219956 148 696 696 0.1 1 10 0 0 0 0
534	220104 148 696 696 0.1 1 10 0 0 0 0
535	220252 151 696 696 0.1 1 10 0 5920 5920 35046400

