version 3
run General-0-20241208-10:56:52-13196
attr configname General
attr datetime 20241208-10:56:52
attr datetimef 20241208-105652
attr experiment General
attr inifile D:/jobSimQt/project/Parameters.ini
attr iterationvars ""
attr iterationvarsd ""
attr iterationvarsf ""
attr measurement ""
attr network TargetNetwork
attr processid 13196
attr repetition 0
attr replication #0
attr resultdir results
attr runnumber 0
attr seedset 0
config network TargetNetwork
config sim-time-limit 1.5s
config **.statistic-recording false
config *.*.ethernet.typename EthernetLayer
config *.*.eth[*].typename LayeredEthernetInterface
config *.*.eth[*].bitrate 100Mbps
config **.eth[*].queue.typename DropTailQueue
config **.eth[*].queue.packetCapacity 100
config **.forwarding false
config **.arp.retryTimeout 1s
config **.arp.retryCount 3
config **.arp.cacheTimeout 100s
config **.tcp.tcpAlgorithmClass "\"TcpReno\""
config **.tcp.typename Tcp
config **.tcp.advertisedWindow 65535
config **.tcp.delayedAcksEnabled false
config **.tcp.nagleEnabled true
config **.tcp.limitedTransmitEnabled false
config **.tcp.increasedIWEnabled false
config **.tcp.sackSupport false
config **.tcp.windowScalingSupport false
config **.tcp.timestampSupport false
config **.tcp.mss 1452
config *.configurator.config "xml(\"<config>\\n\" + \"<interface hosts='udp_tcp' address='192.168.0.1' netmask='255.255.255.x'/>\\n\" + \"<interface hosts='udp_tcp2' address='192.168.0.2' netmask='255.255.255.x'/>\\n\" + \"<interface hosts='udp_tcp3' address='192.168.0.3' netmask='255.255.255.x'/>\\n\" + \"<interface hosts='udp_tcp4' address='192.168.0.4' netmask='255.255.255.x'/>\\n\" + \"<interface hosts='udp_tcp5' address='192.168.0.5' netmask='255.255.255.x'/>\\n\" + \"<interface hosts='udp_tcp6' address='192.168.0.6' netmask='255.255.255.x'/>\\n\" + \"<interface hosts='udp_tcp7' address='192.168.0.7' netmask='255.255.255.x'/>\\n\" + \"<interface hosts='udp_tcp8' address='192.168.0.8' netmask='255.255.255.x'/>\\n\" + \"<interface hosts='udp_tcp9' address='192.168.0.9' netmask='255.255.255.x'/>\\n\" + \"<interface hosts='udp_tcp10' address='192.168.0.10' netmask='255.255.255.x'/>\\n\" + \"<interface hosts='udp_tcp11' address='192.168.0.11' netmask='255.255.255.x'/>\\n\" + \"<interface hosts='udp_tcp12' address='192.168.0.12' netmask='255.255.255.x'/>\\n\" + \"<interface hosts='udp_tcp13' address='192.168.0.13' netmask='255.255.255.x'/>\\n\" + \"<interface hosts='udp_tcp14' address='192.168.0.14' netmask='255.255.255.x'/>\\n\" + \"<interface hosts='udp_tcp15' address='192.168.0.15' netmask='255.255.255.x'/>\\n\" + \"<interface hosts='udp_tcp16' address='192.168.0.16' netmask='255.255.255.x'/>\\n\" + \"<interface hosts='udp_tcp17' address='192.168.0.17' netmask='255.255.255.x'/>\\n\" + \"<interface hosts='udp_tcp18' address='192.168.0.18' netmask='255.255.255.x'/>\\n\" + \"<interface hosts='udp_tcp19' address='192.168.0.19' netmask='255.255.255.x'/>\\n\" + \"<interface hosts='udp_tcp20' address='192.168.0.20' netmask='255.255.255.x'/>\\n\" + \"<interface hosts='udp_tcp21' address='192.168.0.21' netmask='255.255.255.x'/>\\n\" + \"<interface hosts='udp_tcp22' address='192.168.0.22' netmask='255.255.255.x'/>\\n\" + \"<interface hosts='udp_tcp23' address='192.168.0.23' netmask='255.255.255.x'/>\\n\" + \"<interface hosts='udp_tcp24' address='192.168.0.24' netmask='255.255.255.x'/>\\n\" + \"<interface hosts='udp_tcp25' address='192.168.0.25' netmask='255.255.255.x'/>\\n\" + \"<interface hosts='udp_tcp26' address='192.168.0.26' netmask='255.255.255.x'/>\\n\" + \"<interface hosts='udp_tcp27' address='192.168.0.27' netmask='255.255.255.x'/>\\n\" + \"<interface hosts='udp_tcp28' address='192.168.0.28' netmask='255.255.255.x'/>\\n\" + \"<interface hosts='udp_tcp29' address='192.168.0.29' netmask='255.255.255.x'/>\\n\" + \"<interface hosts='udp_tcp30' address='192.168.0.30' netmask='255.255.255.x'/>\\n\" + \"<interface hosts='udp_tcp31' address='192.168.0.31' netmask='255.255.255.x'/>\\n\" + \"<interface hosts='udp_tcp32' address='192.168.0.32' netmask='255.255.255.x'/>\\n\" + \"<interface hosts='udp_tcp33' address='192.168.0.33' netmask='255.255.255.x'/>\\n\" + \"<interface hosts='udp_tcp34' address='192.168.0.34' netmask='255.255.255.x'/>\\n\" + \"<interface hosts='udp_tcp35' address='192.168.0.35' netmask='255.255.255.x'/>\\n\" + \"<interface hosts='udp_tcp36' address='192.168.0.36' netmask='255.255.255.x'/>\\n\" + \"<interface hosts='udp_tcp37' address='192.168.0.37' netmask='255.255.255.x'/>\\n\" + \"<interface hosts='udp_tcp38' address='192.168.0.38' netmask='255.255.255.x'/>\\n\" + \"<interface hosts='udp_tcp39' address='192.168.0.39' netmask='255.255.255.x'/>\\n\" + \"<interface hosts='udp_tcp40' address='192.168.0.40' netmask='255.255.255.x'/>\\n\" + \"</config>\")"
config *.udp_tcp.numApps 1
config *.udp_tcp.app[0].typename UdpApp615
config *.udp_tcp.app[0].source.packetLength 1000B
config *.udp_tcp.app[0].source.productionInterval exponential(10ms)
config *.udp_tcp.app[0].io.destAddress "\"udp_tcp2\""
config *.udp_tcp.app[0].io.destPort 1000
config *.udp_tcp.app[0].sink.typename ""
config *.udp_tcp2.numApps 1
config *.udp_tcp2.app[0].typename UdpApp615
config *.udp_tcp2.app[0].source.typename ""
config *.udp_tcp2.app[0].io.destPort -1
config *.udp_tcp2.app[0].io.localPort 1000
config *.udp_tcp2.app[0].sink.flowName "\"default2\""
config *.udp_tcp3.numApps 0
config *.udp_tcp4.numApps 0
config *.udp_tcp5.numApps 0
config *.udp_tcp6.numApps 0
config *.udp_tcp7.numApps 0
config *.udp_tcp8.numApps 0
config *.udp_tcp9.numApps 1
config *.udp_tcp9.app[0].typename UdpApp615
config *.udp_tcp9.app[0].source.packetLength 1000B
config *.udp_tcp9.app[0].source.productionInterval exponential(10ms)
config *.udp_tcp9.app[0].io.destAddress "\"udp_tcp10\""
config *.udp_tcp9.app[0].io.destPort 1000
config *.udp_tcp9.app[0].sink.typename ""
config *.udp_tcp10.numApps 1
config *.udp_tcp10.app[0].typename UdpApp615
config *.udp_tcp10.app[0].source.typename ""
config *.udp_tcp10.app[0].io.destPort -1
config *.udp_tcp10.app[0].io.localPort 1000
config *.udp_tcp10.app[0].sink.flowName "\"default10\""
config *.udp_tcp11.numApps 0
config *.udp_tcp12.numApps 0
config *.udp_tcp13.numApps 0
config *.udp_tcp14.numApps 0
config *.udp_tcp15.numApps 0
config *.udp_tcp16.numApps 0
config *.udp_tcp17.numApps 1
config *.udp_tcp17.app[0].typename UdpApp615
config *.udp_tcp17.app[0].source.packetLength 1000B
config *.udp_tcp17.app[0].source.productionInterval exponential(10ms)
config *.udp_tcp17.app[0].io.destAddress "\"udp_tcp18\""
config *.udp_tcp17.app[0].io.destPort 1000
config *.udp_tcp17.app[0].sink.typename ""
config *.udp_tcp18.numApps 1
config *.udp_tcp18.app[0].typename UdpApp615
config *.udp_tcp18.app[0].source.typename ""
config *.udp_tcp18.app[0].io.destPort -1
config *.udp_tcp18.app[0].io.localPort 1000
config *.udp_tcp18.app[0].sink.flowName "\"default18\""
config *.udp_tcp19.numApps 0
config *.udp_tcp20.numApps 0
config *.udp_tcp21.numApps 0
config *.udp_tcp22.numApps 0
config *.udp_tcp23.numApps 0
config *.udp_tcp24.numApps 0
config *.udp_tcp25.numApps 0
config *.udp_tcp26.numApps 0
config *.udp_tcp27.numApps 0
config *.udp_tcp28.numApps 0
config *.udp_tcp29.numApps 1
config *.udp_tcp29.app[0].typename UdpApp615
config *.udp_tcp29.app[0].source.packetLength 1000B
config *.udp_tcp29.app[0].source.productionInterval exponential(10ms)
config *.udp_tcp29.app[0].io.destAddress "\"udp_tcp30\""
config *.udp_tcp29.app[0].io.destPort 1000
config *.udp_tcp29.app[0].sink.typename ""
config *.udp_tcp30.numApps 1
config *.udp_tcp30.app[0].typename UdpApp615
config *.udp_tcp30.app[0].source.typename ""
config *.udp_tcp30.app[0].io.destPort -1
config *.udp_tcp30.app[0].io.localPort 1000
config *.udp_tcp30.app[0].sink.flowName "\"default30\""
config *.udp_tcp31.numApps 0
config *.udp_tcp32.numApps 0
config *.udp_tcp33.numApps 1
config *.udp_tcp33.app[0].typename UdpApp615
config *.udp_tcp33.app[0].source.packetLength 1000B
config *.udp_tcp33.app[0].source.productionInterval exponential(10ms)
config *.udp_tcp33.app[0].io.destAddress "\"udp_tcp34\""
config *.udp_tcp33.app[0].io.destPort 1000
config *.udp_tcp33.app[0].sink.typename ""
config *.udp_tcp34.numApps 1
config *.udp_tcp34.app[0].typename UdpApp615
config *.udp_tcp34.app[0].source.typename ""
config *.udp_tcp34.app[0].io.destPort -1
config *.udp_tcp34.app[0].io.localPort 1000
config *.udp_tcp34.app[0].sink.flowName "\"default34\""
config *.udp_tcp35.numApps 0
config *.udp_tcp36.numApps 0
config *.udp_tcp37.numApps 0
config *.udp_tcp38.numApps 0
config *.udp_tcp39.numApps 0
config *.udp_tcp40.numApps 0
config *.switch.eth[*].bitrate 100Mbps
config *.switch2.eth[*].bitrate 100Mbps
config *.switch3.eth[*].bitrate 100Mbps
config *.switch4.eth[*].bitrate 100Mbps
config *.switch5.eth[*].bitrate 100Mbps

vector 0 TargetNetwork.udp_tcp.eth[0].macLayer.queue 615.udp_tcp.eth[0].macLayer.queue ETV
vector 1 TargetNetwork.udp_tcp9.eth[0].macLayer.queue 615.udp_tcp9.eth[0].macLayer.queue ETV
vector 2 TargetNetwork.udp_tcp17.eth[0].macLayer.queue 615.udp_tcp17.eth[0].macLayer.queue ETV
vector 3 TargetNetwork.udp_tcp29.eth[0].macLayer.queue 615.udp_tcp29.eth[0].macLayer.queue ETV
vector 4 TargetNetwork.udp_tcp33.eth[0].macLayer.queue 615.udp_tcp33.eth[0].macLayer.queue ETV
vector 5 TargetNetwork.switch.eth[1].macLayer.queue 615.switch.eth[1].macLayer.queue ETV
vector 6 TargetNetwork.switch2.eth[1].macLayer.queue 615.switch2.eth[1].macLayer.queue ETV
vector 7 TargetNetwork.switch3.eth[1].macLayer.queue 615.switch3.eth[1].macLayer.queue ETV
vector 8 TargetNetwork.switch4.eth[5].macLayer.queue 615.switch4.eth[5].macLayer.queue ETV
vector 9 TargetNetwork.switch5.eth[1].macLayer.queue 615.switch5.eth[1].macLayer.queue ETV
vector 10 TargetNetwork.udp_tcp2.app[0].sink default2 ETV
vector 11 TargetNetwork.udp_tcp2.app[0].sink default2_loss ETV
vector 12 TargetNetwork.udp_tcp10.app[0].sink default10 ETV
vector 13 TargetNetwork.udp_tcp10.app[0].sink default10_loss ETV
vector 14 TargetNetwork.udp_tcp18.app[0].sink default18 ETV
vector 15 TargetNetwork.udp_tcp18.app[0].sink default18_loss ETV
vector 16 TargetNetwork.udp_tcp30.app[0].sink default30 ETV
vector 17 TargetNetwork.udp_tcp30.app[0].sink default30_loss ETV
vector 18 TargetNetwork.udp_tcp34.app[0].sink default34 ETV
vector 19 TargetNetwork.udp_tcp34.app[0].sink default34_loss ETV
0	119	0	0.01
0	124	0	0
0	213	0.007958745046	0.01
0	214	0.007958745046	0
0	402	0.027474198405	0.01
0	403	0.027474198405	0
0	633	0.049709442625	0.01
0	634	0.049709442625	0
0	696	0.054698162715	0.01
0	697	0.054698162715	0
0	717	0.05543501627	0.01
0	718	0.05543501627	0
0	780	0.059550796232	0.01
0	781	0.059550796232	0
0	801	0.059755052116	0.01
0	802	0.059755052116	0
0	843	0.064347533489	0.01
0	844	0.064347533489	0
0	1032	0.095849232776	0.01
0	1033	0.095849232776	0
0	1074	0.102038527372	0.01
0	1075	0.102038527372	0
0	1213	0.117203887112	0.01
0	1214	0.117203887112	0
0	1326	0.124912233697	0.01
0	1327	0.124912233697	0
0	1410	0.130267890899	0.01
0	1411	0.130267890899	0
0	1641	0.145150439157	0.01
0	1642	0.145150439157	0
0	1704	0.147664858478	0.01
0	1705	0.147664858478	0
0	1977	0.176444008691	0.01
0	1978	0.176444008691	0
0	2040	0.187032350006	0.01
0	2041	0.187032350006	0
0	2124	0.189394417067	0.01
0	2125	0.189394417067	0
0	2187	0.19318403671	0.01
0	2188	0.19318403671	0
0	2229	0.197115162283	0.01
0	2230	0.197115162283	0
0	2250	0.197506993847	0.01
0	2251	0.197506993847	0
0	2313	0.203280236955	0.01
0	2314	0.203280236955	0
0	2586	0.235209703376	0.01
0	2587	0.235209703376	0
0	2628	0.238012473461	0.01
0	2629	0.238012473461	0
0	2670	0.239743748022	0.01
0	2671	0.239743748022	0
0	2691	0.24091330212	0.01
0	2692	0.24091330212	0
0	2838	0.252144985135	0.01
0	2839	0.252144985135	0
0	2880	0.256745124712	0.01
0	2881	0.256745124712	0
0	3006	0.273948441289	0.01
0	3007	0.273948441289	0
0	3048	0.274958789042	0.01
0	3049	0.274958789042	0
0	3342	0.312449103638	0.01
0	3343	0.312449103638	0
0	3397	0.313729671291	0.01
0	3398	0.313729671291	0
0	3489	0.320286134135	0.01
0	3490	0.320286134135	0
0	3678	0.341528506105	0.01
0	3679	0.341528506105	0
0	3699	0.344612654506	0.01
0	3700	0.344612654506	0
0	3804	0.351725133878	0.01
0	3805	0.351725133878	0
0	3867	0.360304090289	0.01
0	3868	0.360304090289	0
0	3909	0.363557494444	0.01
0	3910	0.363557494444	0
0	3922	0.363651501951	0.01
0	3923	0.363651501951	0
0	3993	0.374659961052	0.01
0	3994	0.374659961052	0
0	4098	0.385077767594	0.01
0	4099	0.385077767594	0
0	4161	0.38710127198	0.01
0	4162	0.38710127198	0
0	4266	0.395149245978	0.01
0	4267	0.395149245978	0
0	4278	0.395196311383	0.01
0	4292	0.395234525978	0
0	4434	0.406522652803	0.01
0	4435	0.406522652803	0
0	4728	0.43927408458	0.01
0	4729	0.43927408458	0
0	4791	0.445200324855	0.01
0	4792	0.445200324855	0
0	5127	0.483630390687	0.01
0	5128	0.483630390687	0
0	5190	0.492509004791	0.01
0	5191	0.492509004791	0
0	5232	0.4994669994	0.01
0	5233	0.4994669994	0
0	5644	0.530721682977	0.01
0	5645	0.530721682977	0
0	5673	0.532177422761	0.01
0	5674	0.532177422761	0
0	5694	0.533262893746	0.01
0	5695	0.533262893746	0
0	5778	0.536805135068	0.01
0	5779	0.536805135068	0
0	5883	0.545742425851	0.01
0	5884	0.545742425851	0
0	6198	0.580467780644	0.01
0	6199	0.580467780644	0
0	6366	0.592637975597	0.01
0	6367	0.592637975597	0
0	6996	0.660291880796	0.01
0	6997	0.660291880796	0
0	7290	0.697391486715	0.01
0	7291	0.697391486715	0
0	7311	0.697950187244	0.01
0	7312	0.697950187244	0
0	7458	0.702089976471	0.01
0	7459	0.702089976471	0
0	7500	0.704625033522	0.01
0	7501	0.704625033522	0
0	7542	0.708861604536	0.01
0	7543	0.708861604536	0
0	7731	0.735183793161	0.01
0	7732	0.735183793161	0
0	7752	0.735700622219	0.01
0	7753	0.735700622219	0
0	7899	0.744309858586	0.01
0	7900	0.744309858586	0
0	7962	0.755675823539	0.01
0	7963	0.755675823539	0
0	8004	0.764589609308	0.01
0	8005	0.764589609308	0
0	8109	0.777687463022	0.01
0	8110	0.777687463022	0
0	8151	0.78007499175	0.01
0	8152	0.78007499175	0
0	8214	0.782590977881	0.01
0	8215	0.782590977881	0
0	8571	0.8114817338	0.01
0	8572	0.8114817338	0
0	8907	0.848948679938	0.01
0	8908	0.848948679938	0
0	9033	0.861490712639	0.01
0	9034	0.861490712639	0
0	9243	0.885179894347	0.01
0	9244	0.885179894347	0
0	9327	0.895558395102	0.01
0	9328	0.895558395102	0
0	9453	0.902892071834	0.01
0	9454	0.902892071834	0
0	9516	0.908433780124	0.01
0	9517	0.908433780124	0
0	9537	0.910487257811	0.01
0	9538	0.910487257811	0
0	9621	0.921877834318	0.01
0	9622	0.921877834318	0
0	9705	0.928482865115	0.01
0	9706	0.928482865115	0
0	9726	0.931089266409	0.01
0	9727	0.931089266409	0
0	9810	0.944214346339	0.01
0	9811	0.944214346339	0
0	9873	0.946613581533	0.01
0	9874	0.946613581533	0
0	9894	0.952995467589	0.01
0	9895	0.952995467589	0
0	9915	0.953255445041	0.01
0	9916	0.953255445041	0
0	10083	0.96568895282	0.01
0	10084	0.96568895282	0
0	10104	0.968108149268	0.01
0	10105	0.968108149268	0
0	10209	0.971360309448	0.01
0	10210	0.971360309448	0
0	10293	0.985107108986	0.01
0	10294	0.985107108986	0
0	10377	0.988349100121	0.01
0	10378	0.988349100121	0
0	10587	1.000539093573	0.01
0	10588	1.000539093573	0
0	10650	1.001872499806	0.01
0	10651	1.001872499806	0
0	10902	1.03007885929	0.01
0	10903	1.03007885929	0
0	11034	1.038861010077	0.01
0	11035	1.038861010077	0
0	11238	1.050170194869	0.01
0	11239	1.050170194869	0
0	11301	1.065548482014	0.01
0	11302	1.065548482014	0
0	11490	1.077705386748	0.01
0	11491	1.077705386748	0
0	11637	1.098620952474	0.01
0	11638	1.098620952474	0
0	11742	1.119729840218	0.01
0	11743	1.119729840218	0
0	11847	1.135784427849	0.01
0	11848	1.135784427849	0
0	11952	1.142678773227	0.01
0	11953	1.142678773227	0
0	11994	1.152298892493	0.01
0	11995	1.152298892493	0
0	12007	1.152432144941	0.01
0	12008	1.152432144941	0
0	12267	1.189028718249	0.01
0	12268	1.189028718249	0
0	12309	1.19216869723	0.01
0	12310	1.19216869723	0
0	12393	1.197453369513	0.01
0	12394	1.197453369513	0
0	12435	1.200989335266	0.01
0	12436	1.200989335266	0
0	12582	1.206116481692	0.01
0	12583	1.206116481692	0
0	12708	1.225935385103	0.01
0	12709	1.225935385103	0
0	12840	1.249639260909	0.01
0	12841	1.249639260909	0
0	12939	1.25323219996	0.01
0	12940	1.25323219996	0
0	13296	1.279297917983	0.01
0	13297	1.279297917983	0
0	13401	1.290446792202	0.01
0	13402	1.290446792202	0
0	13569	1.304395483115	0.01
0	13570	1.304395483115	0
0	13624	1.307354501847	0.01
0	13625	1.307354501847	0
0	13653	1.307924167172	0.01
0	13654	1.307924167172	0
0	13750	1.314395914212	0.01
0	13751	1.314395914212	0
0	13848	1.320486558765	0.01
0	13849	1.320486558765	0
0	14115	1.339634981341	0.01
0	14116	1.339634981341	0
0	14136	1.341949191061	0.01
0	14137	1.341949191061	0
0	14283	1.357031343377	0.01
0	14284	1.357031343377	0
0	14304	1.357755534478	0.01
0	14305	1.357755534478	0
0	14514	1.366613140938	0.01
0	14515	1.366613140938	0
0	14535	1.367069521433	0.01
0	14536	1.367069521433	0
0	14598	1.379628456276	0.01
0	14599	1.379628456276	0
0	14619	1.380429244835	0.01
0	14620	1.380429244835	0
0	14682	1.3867685661	0.01
0	14683	1.3867685661	0
0	14745	1.390433079018	0.01
0	14746	1.390433079018	0
0	14808	1.395787122529	0.01
0	14809	1.395787122529	0
0	14913	1.40615957347	0.01
0	14914	1.40615957347	0
0	14997	1.414288557082	0.01
0	14998	1.414288557082	0
0	15060	1.415841412937	0.01
0	15061	1.415841412937	0
0	15102	1.419093121642	0.01
0	15103	1.419093121642	0
0	15123	1.420472653961	0.01
0	15124	1.420472653961	0
0	15165	1.42441322968	0.01
0	15166	1.42441322968	0
0	15249	1.426003349848	0.01
0	15250	1.426003349848	0
0	15283	1.427389218062	0.01
0	15284	1.427389218062	0
0	15396	1.436038599156	0.01
0	15397	1.436038599156	0
0	15522	1.45741281606	0.01
0	15523	1.45741281606	0
0	15606	1.462504840929	0.01
0	15607	1.462504840929	0
0	15690	1.474217477878	0.01
0	15691	1.474217477878	0
0	15753	1.478188287378	0.01
0	15754	1.478188287378	0
0	15774	1.478462708382	0.01
0	15775	1.478462708382	0
0	15858	1.488570400013	0.01
0	15859	1.488570400013	0
0	15921	1.490320350495	0.01
0	15922	1.490320350495	0
0	15984	1.494006179891	0.01
0	15985	1.494006179891	0
1	120	0	0.01
1	125	0	0
1	234	0.008985603885	0.01
1	235	0.008985603885	0
1	297	0.016857615285	0.01
1	298	0.016857615285	0
1	381	0.026627679549	0.01
1	382	0.026627679549	0
1	507	0.03015927094	0.01
1	508	0.03015927094	0
1	570	0.036653734423	0.01
1	571	0.036653734423	0
1	591	0.044180475556	0.01
1	592	0.044180475556	0
1	654	0.050719301228	0.01
1	655	0.050719301228	0
1	927	0.076701842086	0.01
1	928	0.076701842086	0
1	1053	0.097110764245	0.01
1	1054	0.097110764245	0
1	1095	0.104460408457	0.01
1	1096	0.104460408457	0
1	1179	0.115819797874	0.01
1	1180	0.115819797874	0
1	1305	0.124543009824	0.01
1	1306	0.124543009824	0
1	1347	0.12566247143	0.01
1	1348	0.12566247143	0
1	1452	0.13207941845	0.01
1	1453	0.13207941845	0
1	1515	0.138170242682	0.01
1	1516	0.138170242682	0
1	1536	0.139623022955	0.01
1	1537	0.139623022955	0
1	1557	0.139812708647	0.01
1	1558	0.139812708647	0
1	1584	0.143730416754	0.01
1	1585	0.143730416754	0
1	1662	0.145351781648	0.01
1	1663	0.145351781648	0
1	1788	0.154947261422	0.01
1	1789	0.154947261422	0
1	1809	0.159402446373	0.01
1	1810	0.159402446373	0
1	1893	0.168897392208	0.01
1	1894	0.168897392208	0
1	1914	0.169943004466	0.01
1	1915	0.169943004466	0
1	1935	0.170564157371	0.01
1	1936	0.170564157371	0
1	2355	0.205566294216	0.01
1	2356	0.205566294216	0
1	2460	0.21614455835	0.01
1	2461	0.21614455835	0
1	2502	0.226731985501	0.01
1	2503	0.226731985501	0
1	2544	0.229652790834	0.01
1	2545	0.229652790834	0
1	2607	0.235932206644	0.01
1	2608	0.235932206644	0
1	2733	0.245700847385	0.01
1	2734	0.245700847385	0
1	2796	0.249516405819	0.01
1	2797	0.249516405819	0
1	2817	0.251705211784	0.01
1	2818	0.251705211784	0
1	3090	0.281577110703	0.01
1	3091	0.281577110703	0
1	3132	0.287900476667	0.01
1	3133	0.287900476667	0
1	3531	0.325519749512	0.01
1	3532	0.325519749512	0
1	3762	0.350558867343	0.01
1	3763	0.350558867343	0
1	3783	0.351545370427	0.01
1	3784	0.351545370427	0
1	4035	0.376948415507	0.01
1	4036	0.376948415507	0
1	4334	0.395361240222	0.01
1	4335	0.395361240222	0
1	4392	0.398508456831	0.01
1	4393	0.398508456831	0
1	4539	0.411796035569	0.01
1	4540	0.411796035569	0
1	4581	0.416839473635	0.01
1	4582	0.416839473635	0
1	4749	0.439476809394	0.01
1	4750	0.439476809394	0
1	4812	0.445440603337	0.01
1	4813	0.445440603337	0
1	4896	0.457462989009	0.01
1	4897	0.457462989009	0
1	5049	0.474272211054	0.01
1	5050	0.474272211054	0
1	5211	0.495620515554	0.01
1	5212	0.495620515554	0
1	5295	0.503239193267	0.01
1	5296	0.503239193267	0
1	5337	0.50826230125	0.01
1	5338	0.50826230125	0
1	5442	0.517906836905	0.01
1	5443	0.517906836905	0
1	5526	0.521496109064	0.01
1	5527	0.521496109064	0
1	5568	0.524922105311	0.01
1	5569	0.524922105311	0
1	5715	0.534545855869	0.01
1	5716	0.534545855869	0
1	5757	0.535515083415	0.01
1	5758	0.535515083415	0
1	5799	0.539885363553	0.01
1	5800	0.539885363553	0
1	5904	0.547910883411	0.01
1	5905	0.547910883411	0
1	6085	0.558469379498	0.01
1	6086	0.558469379498	0
1	6408	0.599847477103	0.01
1	6409	0.599847477103	0
1	6429	0.60146617797	0.01
1	6430	0.60146617797	0
1	6660	0.624967950868	0.01
1	6661	0.624967950868	0
1	6702	0.641435141881	0.01
1	6703	0.641435141881	0
1	6870	0.649853951498	0.01
1	6871	0.649853951498	0
1	6912	0.655896942216	0.01
1	6913	0.655896942216	0
1	7059	0.668700284254	0.01
1	7060	0.668700284254	0
1	7080	0.671323577346	0.01
1	7081	0.671323577346	0
1	7093	0.671441409665	0.01
1	7094	0.671441409665	0
1	7206	0.685919350485	0.01
1	7207	0.685919350485	0
1	7227	0.687802300237	0.01
1	7228	0.687802300237	0
1	7248	0.691948425664	0.01
1	7249	0.691948425664	0
1	7353	0.699309736664	0.01
1	7354	0.699309736664	0
1	7416	0.701288031739	0.01
1	7417	0.701288031739	0
1	7584	0.71707215896	0.01
1	7585	0.71707215896	0
1	7689	0.729260126993	0.01
1	7690	0.729260126993	0
1	7773	0.736192124688	0.01
1	7774	0.736192124688	0
1	7920	0.748201833753	0.01
1	7921	0.748201833753	0
1	7983	0.755872630299	0.01
1	7984	0.755872630299	0
1	8046	0.769769400937	0.01
1	8047	0.769769400937	0
1	8088	0.773508265896	0.01
1	8089	0.773508265896	0
1	8130	0.778586917123	0.01
1	8131	0.778586917123	0
1	8193	0.780942162857	0.01
1	8194	0.780942162857	0
1	8256	0.783410755545	0.01
1	8257	0.783410755545	0
1	8340	0.796864229877	0.01
1	8341	0.796864229877	0
1	8382	0.799444357516	0.01
1	8383	0.799444357516	0
1	8472	0.802379434035	0.01
1	8473	0.802379434035	0
1	8529	0.809070571272	0.01
1	8530	0.809070571272	0
1	8760	0.830357272217	0.01
1	8761	0.830357272217	0
1	8823	0.841732657272	0.01
1	8824	0.841732657272	0
1	8962	0.853036212731	0.01
1	8963	0.853036212731	0
1	8991	0.855481122951	0.01
1	8992	0.855481122951	0
1	9039	0.861569452088	0.01
1	9040	0.861569452088	0
1	9075	0.864625501106	0.01
1	9076	0.864625501106	0
1	9096	0.866101461435	0.01
1	9097	0.866101461435	0
1	9117	0.866310133621	0.01
1	9118	0.866310133621	0
1	9159	0.868913647736	0.01
1	9160	0.868913647736	0
1	9285	0.890249280611	0.01
1	9286	0.890249280611	0
1	9306	0.894175010893	0.01
1	9307	0.894175010893	0
1	9558	0.911956444261	0.01
1	9559	0.911956444261	0
1	9789	0.942488290957	0.01
1	9790	0.942488290957	0
1	9852	0.946252584472	0.01
1	9853	0.946252584472	0
1	9957	0.953554861124	0.01
1	9958	0.953554861124	0
1	9978	0.955223607536	0.01
1	9979	0.955223607536	0
1	10041	0.960751991243	0.01
1	10042	0.960751991243	0
1	10188	0.971144047609	0.01
1	10189	0.971144047609	0
1	10440	0.991084439622	0.01
1	10441	0.991084439622	0
1	10543	0.999418222028	0.01
1	10544	0.999418222028	0
1	10713	1.006113627937	0.01
1	10714	1.006113627937	0
1	10797	1.019857058081	0.01
1	10798	1.019857058081	0
1	10860	1.022309039007	0.01
1	10861	1.022309039007	0
1	10923	1.030342956634	0.01
1	10924	1.030342956634	0
1	10944	1.03080983407	0.01
1	10945	1.03080983407	0
1	11280	1.063494798078	0.01
1	11281	1.063494798078	0
1	11322	1.06680389689	0.01
1	11323	1.06680389689	0
1	11427	1.07563270234	0.01
1	11428	1.07563270234	0
1	11511	1.084318359655	0.01
1	11512	1.084318359655	0
1	11553	1.093644478208	0.01
1	11554	1.093644478208	0
1	11608	1.09610863643	0.01
1	11609	1.09610863643	0
1	11650	1.098744407558	0.01
1	11651	1.098744407558	0
1	11805	1.128566414313	0.01
1	11806	1.128566414313	0
1	11931	1.140895218943	0.01
1	11932	1.140895218943	0
1	11973	1.143056181109	0.01
1	11974	1.143056181109	0
1	12078	1.157898605936	0.01
1	12079	1.157898605936	0
1	12120	1.159501946881	0.01
1	12121	1.159501946881	0
1	12414	1.19958144343	0.01
1	12415	1.19958144343	0
1	12468	1.201686776312	0.01
1	12469	1.201686776312	0
1	12540	1.204226890096	0.01
1	12541	1.204226890096	0
1	12561	1.205256573733	0.01
1	12562	1.205256573733	0
1	12624	1.210467361944	0.01
1	12625	1.210467361944	0
1	12792	1.246556771994	0.01
1	12793	1.246556771994	0
1	12889	1.250608600817	0.01
1	12890	1.250608600817	0
1	13128	1.265534922459	0.01
1	13129	1.265534922459	0
1	13317	1.280256964039	0.01
1	13318	1.280256964039	0
1	13485	1.296886621846	0.01
1	13486	1.296886621846	0
1	13527	1.301651407672	0.01
1	13528	1.301651407672	0
1	13548	1.302666748511	0.01
1	13549	1.302666748511	0
1	13590	1.305818348798	0.01
1	13591	1.305818348798	0
1	13611	1.307228027642	0.01
1	13612	1.307228027642	0
1	13779	1.316191319692	0.01
1	13780	1.316191319692	0
1	13884	1.32362715161	0.01
1	13885	1.32362715161	0
1	13926	1.326961184994	0.01
1	13927	1.326961184994	0
1	13989	1.331740364869	0.01
1	13990	1.331740364869	0
1	14094	1.338860445525	0.01
1	14095	1.338860445525	0
1	14220	1.350800579231	0.01
1	14221	1.350800579231	0
1	14241	1.353803830034	0.01
1	14242	1.353803830034	0
1	14262	1.355768448893	0.01
1	14263	1.355768448893	0
1	14367	1.360449513425	0.01
1	14368	1.360449513425	0
1	14640	1.382710353319	0.01
1	14641	1.382710353319	0
1	14724	1.39002580671	0.01
1	14725	1.39002580671	0
1	14850	1.398642481628	0.01
1	14851	1.398642481628	0
1	14871	1.399002509925	0.01
1	14872	1.399002509925	0
1	15003	1.414310994114	0.01
1	15004	1.414310994114	0
1	15228	1.425748947905	0.01
1	15229	1.425748947905	0
1	15312	1.427820799728	0.01
1	15313	1.427820799728	0
1	15375	1.435669169924	0.01
1	15376	1.435669169924	0
1	15564	1.459809334229	0.01
1	15565	1.459809334229	0
1	15816	1.483248030637	0.01
1	15817	1.483248030637	0
1	15837	1.485992665857	0.01
1	15838	1.485992665857	0
2	121	0	0.01
2	126	0	0
2	276	0.01255930758	0.01
2	277	0.01255930758	0
2	318	0.018069792447	0.01
2	319	0.018069792447	0
2	444	0.028451385454	0.01
2	445	0.028451385454	0
2	822	0.061600508253	0.01
2	823	0.061600508253	0
2	948	0.079475384887	0.01
2	949	0.079475384887	0
2	1242	0.117927603578	0.01
2	1243	0.117927603578	0
2	1683	0.146871808358	0.01
2	1684	0.146871808358	0
2	1725	0.151757378851	0.01
2	1726	0.151757378851	0
2	1956	0.175046512593	0.01
2	1957	0.175046512593	0
2	2019	0.186035637269	0.01
2	2020	0.186035637269	0
2	2061	0.187909897929	0.01
2	2062	0.187909897929	0
2	2166	0.192343938215	0.01
2	2167	0.192343938215	0
2	2208	0.196864958817	0.01
2	2209	0.196864958817	0
2	2334	0.205309236752	0.01
2	2335	0.205309236752	0
2	2376	0.206385587834	0.01
2	2377	0.206385587834	0
2	2397	0.208728603022	0.01
2	2398	0.208728603022	0
2	2481	0.218808795476	0.01
2	2482	0.218808795476	0
2	2523	0.227527954012	0.01
2	2524	0.227527954012	0
2	2565	0.232878600783	0.01
2	2566	0.232878600783	0
2	2649	0.239316410799	0.01
2	2650	0.239316410799	0
2	2712	0.243441423098	0.01
2	2713	0.243441423098	0
2	2859	0.254122145069	0.01
2	2860	0.254122145069	0
2	2964	0.264984838878	0.01
2	2965	0.264984838878	0
2	3111	0.283183028071	0.01
2	3112	0.283183028071	0
2	3153	0.290308864004	0.01
2	3154	0.290308864004	0
2	3174	0.290882133268	0.01
2	3175	0.290882133268	0
2	3216	0.300166918237	0.01
2	3217	0.300166918237	0
2	3384	0.313609370959	0.01
2	3385	0.313609370959	0
2	3426	0.317121131853	0.01
2	3427	0.317121131853	0
2	3468	0.318385018217	0.01
2	3469	0.318385018217	0
2	3510	0.322212027706	0.01
2	3511	0.322212027706	0
2	3552	0.327560871464	0.01
2	3553	0.327560871464	0
2	3573	0.328223845479	0.01
2	3574	0.328223845479	0
2	3615	0.33066779996	0.01
2	3616	0.33066779996	0
2	3636	0.338996235121	0.01
2	3637	0.338996235121	0
2	3720	0.347357210441	0.01
2	3721	0.347357210441	0
2	3825	0.354764799945	0.01
2	3826	0.354764799945	0
2	3846	0.355632504768	0.01
2	3847	0.355632504768	0
2	4056	0.382125064055	0.01
2	4057	0.382125064055	0
2	4119	0.385541605725	0.01
2	4120	0.385541605725	0
2	4245	0.390613606958	0.01
2	4246	0.390613606958	0
2	4284	0.395230915918	0.01
2	4285	0.395230915918	0
2	4413	0.403661746239	0.01
2	4414	0.403661746239	0
2	4455	0.407065213621	0.01
2	4456	0.407065213621	0
2	4560	0.412744255156	0.01
2	4561	0.412744255156	0
2	4623	0.421710163864	0.01
2	4624	0.421710163864	0
2	4707	0.431896751164	0.01
2	4708	0.431896751164	0
2	4770	0.443292830799	0.01
2	4771	0.443292830799	0
2	4938	0.462027429598	0.01
2	4939	0.462027429598	0
2	4980	0.467077617076	0.01
2	4981	0.467077617076	0
2	5148	0.488372611037	0.01
2	5149	0.488372611037	0
2	5259	0.501291703725	0.01
2	5260	0.501291703725	0
2	5385	0.511619673831	0.01
2	5386	0.511619673831	0
2	5421	0.511813471644	0.01
2	5422	0.511813471644	0
2	5476	0.5181647488	0.01
2	5477	0.5181647488	0
2	5610	0.528957950787	0.01
2	5611	0.528957950787	0
2	5721	0.534557561488	0.01
2	5722	0.534557561488	0
2	5841	0.542996446214	0.01
2	5842	0.542996446214	0
2	5862	0.543338480398	0.01
2	5863	0.543338480398	0
2	5988	0.553928574252	0.01
2	5989	0.553928574252	0
2	6177	0.576614914179	0.01
2	6178	0.576614914179	0
2	6261	0.584315682774	0.01
2	6262	0.584315682774	0
2	6303	0.58536450113	0.01
2	6304	0.58536450113	0
2	6345	0.589707957689	0.01
2	6346	0.589707957689	0
2	6387	0.596042583866	0.01
2	6388	0.596042583866	0
2	6534	0.614439911717	0.01
2	6535	0.614439911717	0
2	6639	0.623999575956	0.01
2	6640	0.623999575956	0
2	6807	0.644019440911	0.01
2	6808	0.644019440911	0
2	7185	0.684517909299	0.01
2	7186	0.684517909299	0
2	7332	0.698380822819	0.01
2	7333	0.698380822819	0
2	7374	0.7006122149	0.01
2	7375	0.7006122149	0
2	7395	0.700799169604	0.01
2	7396	0.700799169604	0
2	7479	0.702674359116	0.01
2	7480	0.702674359116	0
2	7626	0.72343466972	0.01
2	7627	0.72343466972	0
2	7647	0.723758237766	0.01
2	7648	0.723758237766	0
2	7815	0.739066550029	0.01
2	7816	0.739066550029	0
2	8277	0.787857878909	0.01
2	8278	0.787857878909	0
2	8319	0.793874668774	0.01
2	8320	0.793874668774	0
2	8718	0.829019455579	0.01
2	8719	0.829019455579	0
2	8739	0.82971563229	0.01
2	8740	0.82971563229	0
2	8844	0.843334949533	0.01
2	8845	0.843334949533	0
2	8928	0.851026147544	0.01
2	8929	0.851026147544	0
2	9369	0.897422672808	0.01
2	9370	0.897422672808	0
2	9375	0.897423226327	0.01
2	9389	0.897507952808	0
2	9579	0.918031438736	0.01
2	9580	0.918031438736	0
2	9642	0.924121884863	0.01
2	9643	0.924121884863	0
2	9663	0.9265490698	0.01
2	9664	0.9265490698	0
2	9768	0.942095699178	0.01
2	9769	0.942095699178	0
2	9831	0.945025213763	0.01
2	9832	0.945025213763	0
2	10230	0.976596169177	0.01
2	10231	0.976596169177	0
2	10272	0.977846495076	0.01
2	10273	0.977846495076	0
2	10299	0.985131733503	0.01
2	10300	0.985131733503	0
2	10335	0.986548153851	0.01
2	10336	0.986548153851	0
2	10390	0.988470768259	0.01
2	10391	0.988470768259	0
2	10461	0.993513567592	0.01
2	10462	0.993513567592	0
2	10734	1.011866201621	0.01
2	10735	1.011866201621	0
2	10881	1.025675832578	0.01
2	10882	1.025675832578	0
2	11028	1.038832095161	0.01
2	11029	1.038832095161	0
2	11091	1.041587374531	0.01
2	11092	1.041587374531	0
2	11175	1.042238503179	0.01
2	11176	1.042238503179	0
2	11188	1.042331333423	0.01
2	11189	1.042331333423	0
2	11259	1.053415430965	0.01
2	11260	1.053415430965	0
2	11574	1.094975141921	0.01
2	11575	1.094975141921	0
2	11784	1.127564351693	0.01
2	11785	1.127564351693	0
2	11889	1.137518988127	0.01
2	11890	1.137518988127	0
2	12057	1.156133304557	0.01
2	12058	1.156133304557	0
2	12183	1.175960793603	0.01
2	12184	1.175960793603	0
2	12288	1.189967550573	0.01
2	12289	1.189967550573	0
2	12330	1.194565463751	0.01
2	12331	1.194565463751	0
2	12351	1.196037714124	0.01
2	12352	1.196037714124	0
2	12462	1.201627790824	0.01
2	12463	1.201627790824	0
2	12519	1.202913593197	0.01
2	12520	1.202913593197	0
2	12771	1.242389925873	0.01
2	12772	1.242389925873	0
2	12813	1.246841419267	0.01
2	12814	1.246841419267	0
2	12918	1.251941327605	0.01
2	12919	1.251941327605	0
2	12981	1.254584032246	0.01
2	12982	1.254584032246	0
2	13065	1.258519056357	0.01
2	13066	1.258519056357	0
2	13078	1.258659522269	0.01
2	13079	1.258659522269	0
2	13099	1.258774454771	0.01
2	13100	1.258774454771	0
2	13149	1.266398691613	0.01
2	13150	1.266398691613	0
2	13191	1.270031113802	0.01
2	13192	1.270031113802	0
2	13422	1.291474968447	0.01
2	13423	1.291474968447	0
2	13506	1.299625151756	0.01
2	13507	1.299625151756	0
2	13695	1.312609608112	0.01
2	13696	1.312609608112	0
2	13821	1.319302636832	0.01
2	13822	1.319302636832	0
2	13905	1.325136874542	0.01
2	13906	1.325136874542	0
2	13968	1.330818579379	0.01
2	13969	1.330818579379	0
2	14031	1.332817134758	0.01
2	14032	1.332817134758	0
2	14052	1.333720507199	0.01
2	14053	1.333720507199	0
2	14073	1.334305786188	0.01
2	14074	1.334305786188	0
2	14157	1.345095055273	0.01
2	14158	1.345095055273	0
2	14430	1.363886239615	0.01
2	14431	1.363886239615	0
2	14493	1.366080921224	0.01
2	14494	1.366080921224	0
2	14766	1.392005407312	0.01
2	14767	1.392005407312	0
2	15144	1.424053495608	0.01
2	15145	1.424053495608	0
2	15333	1.429040418937	0.01
2	15334	1.429040418937	0
2	15354	1.43000839366	0.01
2	15355	1.43000839366	0
2	15402	1.43611322211	0.01
2	15403	1.43611322211	0
2	15438	1.436979392054	0.01
2	15439	1.436979392054	0
2	15459	1.443115434151	0.01
2	15460	1.443115434151	0
2	15543	1.459228754142	0.01
2	15544	1.459228754142	0
2	15585	1.460209949368	0.01
2	15586	1.460209949368	0
2	15648	1.4657665385	0.01
2	15649	1.4657665385	0
2	15732	1.477793676338	0.01
2	15733	1.477793676338	0
2	15955	1.491931509633	0.01
2	15956	1.491931509633	0
2	16005	1.494582440647	0.01
2	16006	1.494582440647	0
3	122	0	0.01
3	127	0	0
3	339	0.018596042121	0.01
3	340	0.018596042121	0
3	360	0.023447323758	0.01
3	361	0.023447323758	0
3	486	0.029202515727	0.01
3	487	0.029202515727	0
3	549	0.034038536776	0.01
3	550	0.034038536776	0
3	660	0.050760648779	0.01
3	661	0.050760648779	0
3	885	0.068844341422	0.01
3	886	0.068844341422	0
3	906	0.070356649959	0.01
3	907	0.070356649959	0
3	1011	0.090759792538	0.01
3	1012	0.090759792538	0
3	1158	0.106899813287	0.01
3	1159	0.106899813287	0
3	1200	0.11711413203	0.01
3	1201	0.11711413203	0
3	1263	0.118661428835	0.01
3	1264	0.118661428835	0
3	1473	0.132875075636	0.01
3	1474	0.132875075636	0
3	1494	0.135315560543	0.01
3	1495	0.135315560543	0
3	1578	0.143718907599	0.01
3	1579	0.143718907599	0
3	1746	0.15333271699	0.01
3	1747	0.15333271699	0
3	1851	0.164784106537	0.01
3	1852	0.164784106537	0
3	2074	0.188047617154	0.01
3	2075	0.188047617154	0
3	2130	0.189427904038	0.01
3	2131	0.189427904038	0
3	2271	0.198788519636	0.01
3	2272	0.198788519636	0
3	2410	0.208847229688	0.01
3	2411	0.208847229688	0
3	2439	0.210606365142	0.01
3	2440	0.210606365142	0
3	2943	0.264207368644	0.01
3	2944	0.264207368644	0
3	3012	0.273958387986	0.01
3	3013	0.273958387986	0
3	3300	0.309694271709	0.01
3	3301	0.309694271709	0
3	3363	0.313018374119	0.01
3	3364	0.313018374119	0
3	3447	0.317472568738	0.01
3	3448	0.317472568738	0
3	3594	0.329141304003	0.01
3	3595	0.329141304003	0
3	3657	0.340933199274	0.01
3	3658	0.340933199274	0
3	3888	0.360965604499	0.01
3	3889	0.360965604499	0
3	3951	0.36480120664	0.01
3	3952	0.36480120664	0
3	4077	0.38327448315	0.01
3	4078	0.38327448315	0
3	4140	0.386349660388	0.01
3	4141	0.386349660388	0
3	4272	0.395180950808	0.01
3	4273	0.395180950808	0
3	4371	0.39676436587	0.01
3	4372	0.39676436587	0
3	4497	0.408929452404	0.01
3	4498	0.408929452404	0
3	4644	0.423039696497	0.01
3	4645	0.423039696497	0
3	4665	0.425563896426	0.01
3	4666	0.425563896426	0
3	4833	0.447778965411	0.01
3	4834	0.447778965411	0
3	4854	0.449014231885	0.01
3	4855	0.449014231885	0
3	4875	0.452544433218	0.01
3	4876	0.452544433218	0
3	4986	0.467112618804	0.01
3	4987	0.467112618804	0
3	5022	0.469986723565	0.01
3	5023	0.469986723565	0
3	5106	0.478692081828	0.01
3	5107	0.478692081828	0
3	5169	0.490485911164	0.01
3	5170	0.490485911164	0
3	5253	0.501264260005	0.01
3	5254	0.501264260005	0
3	5316	0.503884832422	0.01
3	5317	0.503884832422	0
3	5358	0.509398792323	0.01
3	5359	0.509398792323	0
3	5505	0.518722821127	0.01
3	5506	0.518722821127	0
3	5547	0.522119468453	0.01
3	5548	0.522119468453	0
3	5589	0.526955825319	0.01
3	5590	0.526955825319	0
3	5820	0.540785617384	0.01
3	5821	0.540785617384	0
3	5925	0.54932641474	0.01
3	5926	0.54932641474	0
3	5967	0.553197715661	0.01
3	5968	0.553197715661	0
3	6009	0.555698530611	0.01
3	6010	0.555698530611	0
3	6030	0.557221466864	0.01
3	6031	0.557221466864	0
3	6114	0.561803195704	0.01
3	6115	0.561803195704	0
3	6240	0.584052342276	0.01
3	6241	0.584052342276	0
3	6282	0.585108468712	0.01
3	6283	0.585108468712	0
3	6471	0.610301290013	0.01
3	6472	0.610301290013	0
3	6492	0.610684119142	0.01
3	6493	0.610684119142	0
3	6513	0.612457374893	0.01
3	6514	0.612457374893	0
3	6555	0.619556554165	0.01
3	6556	0.619556554165	0
3	6576	0.621381940184	0.01
3	6577	0.621381940184	0
3	6618	0.62270377728	0.01
3	6619	0.62270377728	0
3	6715	0.641543066146	0.01
3	6716	0.641543066146	0
3	6765	0.643050976248	0.01
3	6766	0.643050976248	0
3	6786	0.643388844104	0.01
3	6787	0.643388844104	0
3	6820	0.644105597947	0.01
3	6821	0.644105597947	0
3	6925	0.65605998361	0.01
3	6926	0.65605998361	0
3	6954	0.656579109132	0.01
3	6955	0.656579109132	0
3	7122	0.676706836494	0.01
3	7123	0.676706836494	0
3	7143	0.681169364699	0.01
3	7144	0.681169364699	0
3	7563	0.71001548222	0.01
3	7564	0.71001548222	0
3	7605	0.719386869397	0.01
3	7606	0.719386869397	0
3	7668	0.72846650967	0.01
3	7669	0.72846650967	0
3	7710	0.730266083086	0.01
3	7711	0.730266083086	0
3	7857	0.739980904667	0.01
3	7858	0.739980904667	0
3	7878	0.743090582717	0.01
3	7879	0.743090582717	0
3	7941	0.752608879792	0.01
3	7942	0.752608879792	0
3	8067	0.772580599467	0.01
3	8068	0.772580599467	0
3	8172	0.780660400001	0.01
3	8173	0.780660400001	0
3	8227	0.782720720486	0.01
3	8228	0.782720720486	0
3	8298	0.79115050824	0.01
3	8299	0.79115050824	0
3	8361	0.797892953936	0.01
3	8362	0.797892953936	0
3	8550	0.809304332965	0.01
3	8551	0.809304332965	0
3	8634	0.821222914002	0.01
3	8635	0.821222914002	0
3	8655	0.823202591355	0.01
3	8656	0.823202591355	0
3	8781	0.831022348564	0.01
3	8782	0.831022348564	0
3	8802	0.837534655883	0.01
3	8803	0.837534655883	0
3	8865	0.843580468066	0.01
3	8866	0.843580468066	0
3	8949	0.852921071392	0.01
3	8950	0.852921071392	0
3	9012	0.859260371586	0.01
3	9013	0.859260371586	0
3	9180	0.870139415922	0.01
3	9181	0.870139415922	0
3	9201	0.873996292862	0.01
3	9202	0.873996292862	0
3	9381	0.897474730476	0.01
3	9382	0.897474730476	0
3	9432	0.901212363414	0.01
3	9433	0.901212363414	0
3	9474	0.904408109963	0.01
3	9475	0.904408109963	0
3	9600	0.920405304381	0.01
3	9601	0.920405304381	0
3	9747	0.932036437215	0.01
3	9748	0.932036437215	0
3	9921	0.953263903754	0.01
3	9922	0.953263903754	0
3	9999	0.955589153938	0.01
3	10000	0.955589153938	0
3	10146	0.96869887762	0.01
3	10147	0.96869887762	0
3	10251	0.97753673418	0.01
3	10252	0.97753673418	0
3	10419	0.988771339175	0.01
3	10420	0.988771339175	0
3	10482	0.994991708366	0.01
3	10483	0.994991708366	0
3	10503	0.997016296003	0.01
3	10504	0.997016296003	0
3	10524	0.999308739255	0.01
3	10525	0.999308739255	0
3	10608	1.000873496959	0.01
3	10609	1.000873496959	0
3	10671	1.005268050864	0.01
3	10672	1.005268050864	0
3	10692	1.00557731378	0.01
3	10693	1.00557731378	0
3	10818	1.020072861544	0.01
3	10819	1.020072861544	0
3	10839	1.020943947377	0.01
3	10840	1.020943947377	0
3	10965	1.034777112039	0.01
3	10966	1.034777112039	0
3	10986	1.037123670532	0.01
3	10987	1.037123670532	0
3	11070	1.040578866369	0.01
3	11071	1.040578866369	0
3	11097	1.04163573811	0.01
3	11098	1.04163573811	0
3	11131	1.041801399054	0.01
3	11132	1.041801399054	0
3	11364	1.068326984209	0.01
3	11365	1.068326984209	0
3	11385	1.068987904316	0.01
3	11386	1.068987904316	0
3	11448	1.076170369117	0.01
3	11449	1.076170369117	0
3	11721	1.114110606948	0.01
3	11722	1.114110606948	0
3	11763	1.126682976904	0.01
3	11764	1.126682976904	0
3	11826	1.13334140177	0.01
3	11827	1.13334140177	0
3	12036	1.154079016401	0.01
3	12037	1.154079016401	0
3	12099	1.158344374521	0.01
3	12100	1.158344374521	0
3	12162	1.173505063819	0.01
3	12163	1.173505063819	0
3	12204	1.180013037243	0.01
3	12205	1.180013037243	0
3	12225	1.186892472028	0.01
3	12226	1.186892472028	0
3	12231	1.186933035241	0.01
3	12239	1.186977752028	0
3	12372	1.197134906121	0.01
3	12373	1.197134906121	0
3	12645	1.214401239918	0.01
3	12646	1.214401239918	0
3	12687	1.218611172898	0.01
3	12688	1.218611172898	0
3	12729	1.234164116502	0.01
3	12730	1.234164116502	0
3	12750	1.239463732295	0.01
3	12751	1.239463732295	0
3	12960	1.254338029838	0.01
3	12961	1.254338029838	0
3	13008	1.255759284952	0.01
3	13009	1.255759284952	0
3	13338	1.286307882742	0.01
3	13339	1.286307882742	0
3	13380	1.289123122967	0.01
3	13381	1.289123122967	0
3	13464	1.294579700115	0.01
3	13465	1.294579700115	0
3	13737	1.314280275771	0.01
3	13738	1.314280275771	0
3	13842	1.320414666667	0.01
3	13843	1.320414666667	0
3	14010	1.33230962918	0.01
3	14011	1.33230962918	0
3	14199	1.3478470842	0.01
3	14200	1.3478470842	0
3	14325	1.359283990406	0.01
3	14326	1.359283990406	0
3	14338	1.359381344499	0.01
3	14339	1.359381344499	0
3	14409	1.362567182978	0.01
3	14410	1.362567182978	0
3	14443	1.363999713192	0.01
3	14444	1.363999713192	0
3	14577	1.379104329204	0.01
3	14578	1.379104329204	0
3	14661	1.385853838941	0.01
3	14662	1.385853838941	0
3	14934	1.407284835945	0.01
3	14935	1.407284835945	0
3	15023	1.414418678773	0.01
3	15024	1.414418678773	0
3	15186	1.424901569823	0.01
3	15187	1.424901569823	0
3	15501	1.456229864718	0.01
3	15502	1.456229864718	0
3	15711	1.477196227453	0.01
3	15712	1.477196227453	0
3	15879	1.489792639159	0.01
3	15880	1.489792639159	0
3	15892	1.489890783523	0.01
3	15893	1.489890783523	0
4	123	0	0.01
4	128	0	0
4	255	0.009232231315	0.01
4	256	0.009232231315	0
4	423	0.028021871857	0.01
4	424	0.028021871857	0
4	457	0.028605718548	0.01
4	458	0.028605718548	0
4	528	0.031789279956	0.01
4	529	0.031789279956	0
4	612	0.047478241132	0.01
4	613	0.047478241132	0
4	738	0.055872569661	0.01
4	739	0.055872569661	0
4	759	0.056784179922	0.01
4	760	0.056784179922	0
4	864	0.067230305005	0.01
4	865	0.067230305005	0
4	969	0.082288147591	0.01
4	970	0.082288147591	0
4	990	0.088705239318	0.01
4	991	0.088705239318	0
4	1116	0.104757634889	0.01
4	1117	0.104757634889	0
4	1137	0.106016378983	0.01
4	1138	0.106016378983	0
4	1276	0.118768656005	0.01
4	1277	0.118768656005	0
4	1368	0.126146928923	0.01
4	1369	0.126146928923	0
4	1389	0.129219732445	0.01
4	1390	0.129219732445	0
4	1431	0.131281765265	0.01
4	1432	0.131281765265	0
4	1620	0.144634667111	0.01
4	1621	0.144634667111	0
4	1767	0.154104633883	0.01
4	1768	0.154104633883	0
4	1830	0.160082094651	0.01
4	1831	0.160082094651	0
4	1872	0.165827418718	0.01
4	1873	0.165827418718	0
4	1998	0.177788496713	0.01
4	1999	0.177788496713	0
4	2103	0.18889447117	0.01
4	2104	0.18889447117	0
4	2292	0.202784898068	0.01
4	2293	0.202784898068	0
4	2754	0.24732986653	0.01
4	2755	0.24732986653	0
4	2775	0.248816989223	0.01
4	2776	0.248816989223	0
4	2901	0.263883342556	0.01
4	2902	0.263883342556	0
4	2914	0.26401998834	0.01
4	2915	0.26401998834	0
4	2970	0.265041437155	0.01
4	2971	0.265041437155	0
4	3069	0.276239580813	0.01
4	3070	0.276239580813	0
4	3195	0.297292793821	0.01
4	3196	0.297292793821	0
4	3237	0.303292262687	0.01
4	3238	0.303292262687	0
4	3258	0.303494163968	0.01
4	3259	0.303494163968	0
4	3279	0.303893926959	0.01
4	3280	0.303893926959	0
4	3306	0.309722710848	0.01
4	3307	0.309722710848	0
4	3741	0.348638412076	0.01
4	3742	0.348638412076	0
4	3972	0.373494235646	0.01
4	3973	0.373494235646	0
4	4014	0.374907542782	0.01
4	4015	0.374907542782	0
4	4182	0.387506880883	0.01
4	4183	0.387506880883	0
4	4203	0.387710005471	0.01
4	4204	0.387710005471	0
4	4224	0.389512527991	0.01
4	4225	0.389512527991	0
4	4468	0.407169938715	0.01
4	4469	0.407169938715	0
4	4518	0.41003014844	0.01
4	4519	0.41003014844	0
4	4602	0.418614078118	0.01
4	4603	0.418614078118	0
4	4686	0.427106286234	0.01
4	4687	0.427106286234	0
4	4909	0.457629102803	0.01
4	4910	0.457629102803	0
4	4959	0.462936327769	0.01
4	4960	0.462936327769	0
4	5043	0.474189147937	0.01
4	5044	0.474189147937	0
4	5085	0.477946536361	0.01
4	5086	0.477946536361	0
4	5379	0.511590240892	0.01
4	5380	0.511590240892	0
4	5455	0.518031287975	0.01
4	5456	0.518031287975	0
4	5631	0.530621723148	0.01
4	5632	0.530621723148	0
4	5946	0.551696199198	0.01
4	5947	0.551696199198	0
4	6043	0.557342304209	0.01
4	6044	0.557342304209	0
4	6072	0.558365510358	0.01
4	6073	0.558365510358	0
4	6135	0.564090125872	0.01
4	6136	0.564090125872	0
4	6156	0.567105785004	0.01
4	6157	0.567105785004	0
4	6219	0.583514760783	0.01
4	6220	0.583514760783	0
4	6324	0.589455495766	0.01
4	6325	0.589455495766	0
4	6450	0.601981571015	0.01
4	6451	0.601981571015	0
4	6597	0.622240659186	0.01
4	6598	0.622240659186	0
4	6681	0.637338893742	0.01
4	6682	0.637338893742	0
4	6744	0.642638922523	0.01
4	6745	0.642638922523	0
4	6849	0.647867622824	0.01
4	6850	0.647867622824	0
4	6891	0.652540348488	0.01
4	6892	0.652540348488	0
4	6975	0.657988919769	0.01
4	6976	0.657988919769	0
4	7017	0.662538038217	0.01
4	7018	0.662538038217	0
4	7030	0.662705715877	0.01
4	7031	0.662705715877	0
4	7164	0.682071488252	0.01
4	7165	0.682071488252	0
4	7269	0.695164471892	0.01
4	7270	0.695164471892	0
4	7437	0.70188907706	0.01
4	7438	0.70188907706	0
4	7521	0.7081150505	0.01
4	7522	0.7081150505	0
4	7794	0.736960493384	0.01
4	7795	0.736960493384	0
4	7836	0.739677174087	0.01
4	7837	0.739677174087	0
4	8025	0.766890656646	0.01
4	8026	0.766890656646	0
4	8403	0.800269999985	0.01
4	8404	0.800269999985	0
4	8424	0.801161542885	0.01
4	8425	0.801161542885	0
4	8445	0.801759352514	0.01
4	8446	0.801759352514	0
4	8466	0.802340076135	0.01
4	8467	0.802340076135	0
4	8508	0.808039051788	0.01
4	8509	0.808039051788	0
4	8592	0.811775749732	0.01
4	8593	0.811775749732	0
4	8613	0.816519912635	0.01
4	8614	0.816519912635	0
4	8676	0.826134308351	0.01
4	8677	0.826134308351	0
4	8697	0.826384191884	0.01
4	8698	0.826384191884	0
4	8886	0.845667793253	0.01
4	8887	0.845667793253	0
4	9138	0.868366193411	0.01
4	9139	0.868366193411	0
4	9222	0.882570027967	0.01
4	9223	0.882570027967	0
4	9264	0.887406411842	0.01
4	9265	0.887406411842	0
4	9348	0.896281431127	0.01
4	9349	0.896281431127	0
4	9495	0.906196474056	0.01
4	9496	0.906196474056	0
4	9684	0.927854110865	0.01
4	9685	0.927854110865	0
4	10020	0.957298913639	0.01
4	10021	0.957298913639	0
4	10062	0.961985678399	0.01
4	10063	0.961985678399	0
4	10117	0.968213971497	0.01
4	10118	0.968213971497	0
4	10167	0.970277551433	0.01
4	10168	0.970277551433	0
4	10356	0.986758313165	0.01
4	10357	0.986758313165	0
4	10530	0.9993764399	0.01
4	10531	0.9993764399	0
4	10629	1.001179182896	0.01
4	10630	1.001179182896	0
4	10755	1.013983426436	0.01
4	10756	1.013983426436	0
4	10776	1.01495510322	0.01
4	10777	1.01495510322	0
4	11007	1.038360022827	0.01
4	11008	1.038360022827	0
4	11117	1.041741569975	0.01
4	11118	1.041741569975	0
4	11217	1.049852980197	0.01
4	11218	1.049852980197	0
4	11343	1.067752876242	0.01
4	11344	1.067752876242	0
4	11406	1.069757298193	0.01
4	11407	1.069757298193	0
4	11469	1.076405375689	0.01
4	11470	1.076405375689	0
4	11532	1.091895492481	0.01
4	11533	1.091895492481	0
4	11595	1.096022791148	0.01
4	11596	1.096022791148	0
4	11679	1.102095584034	0.01
4	11680	1.102095584034	0
4	11700	1.108873604055	0.01
4	11701	1.108873604055	0
4	11868	1.137240005989	0.01
4	11869	1.137240005989	0
4	11910	1.140707539027	0.01
4	11911	1.140707539027	0
4	12133	1.159608556008	0.01
4	12134	1.159608556008	0
4	12456	1.20162715027	0.01
4	12457	1.20162715027	0
4	12603	1.20878760345	0.01
4	12604	1.20878760345	0
4	12666	1.217208966478	0.01
4	12667	1.217208966478	0
4	12834	1.249608596147	0.01
4	12835	1.249608596147	0
4	12876	1.250454391065	0.01
4	12877	1.250454391065	0
4	13002	1.255684067602	0.01
4	13003	1.255684067602	0
4	13044	1.256233141328	0.01
4	13045	1.256233141328	0
4	13170	1.269164619916	0.01
4	13171	1.269164619916	0
4	13212	1.270753951713	0.01
4	13213	1.270753951713	0
4	13233	1.271582574442	0.01
4	13234	1.271582574442	0
4	13254	1.274467701545	0.01
4	13255	1.274467701545	0
4	13275	1.275406447018	0.01
4	13276	1.275406447018	0
4	13359	1.286720234694	0.01
4	13360	1.286720234694	0
4	13443	1.29237918011	0.01
4	13444	1.29237918011	0
4	13674	1.310075378342	0.01
4	13675	1.310075378342	0
4	13716	1.313664991526	0.01
4	13717	1.313664991526	0
4	13800	1.316704707118	0.01
4	13801	1.316704707118	0
4	13947	1.328202120995	0.01
4	13948	1.328202120995	0
4	14178	1.345739267445	0.01
4	14179	1.345739267445	0
4	14388	1.360763395382	0.01
4	14389	1.360763395382	0
4	14472	1.365397295657	0.01
4	14473	1.365397295657	0
4	14556	1.371556488495	0.01
4	14557	1.371556488495	0
4	14703	1.387640666986	0.01
4	14704	1.387640666986	0
4	14787	1.394342985752	0.01
4	14788	1.394342985752	0
4	14829	1.396255946211	0.01
4	14830	1.396255946211	0
4	14892	1.402705031123	0.01
4	14893	1.402705031123	0
4	14955	1.408333283141	0.01
4	14956	1.408333283141	0
4	14976	1.410075234745	0.01
4	14977	1.410075234745	0
4	15081	1.417757768164	0.01
4	15082	1.417757768164	0
4	15207	1.425506191959	0.01
4	15208	1.425506191959	0
4	15270	1.427248179125	0.01
4	15271	1.427248179125	0
4	15480	1.450680578426	0.01
4	15481	1.450680578426	0
4	15627	1.463560198177	0.01
4	15628	1.463560198177	0
4	15669	1.46996993363	0.01
4	15670	1.46996993363	0
4	15795	1.47864963345	0.01
4	15796	1.47864963345	0
4	15942	1.491794854431	0.01
4	15943	1.491794854431	0
5	144	0.00008432	0.01
5	149	0.00008432	0
5	218	0.008043065046	0.01
5	219	0.008043065046	0
5	407	0.027558518405	0.01
5	408	0.027558518405	0
5	638	0.049793762625	0.01
5	639	0.049793762625	0
5	701	0.054782482715	0.01
5	702	0.054782482715	0
5	722	0.05551933627	0.01
5	723	0.05551933627	0
5	785	0.059635116232	0.01
5	786	0.059635116232	0
5	806	0.059839372116	0.01
5	807	0.059839372116	0
5	848	0.064431853489	0.01
5	849	0.064431853489	0
5	1037	0.095933552776	0.01
5	1038	0.095933552776	0
5	1079	0.102122847372	0.01
5	1080	0.102122847372	0
5	1226	0.117288207112	0.01
5	1227	0.117288207112	0
5	1331	0.124996553697	0.01
5	1332	0.124996553697	0
5	1415	0.130352210899	0.01
5	1416	0.130352210899	0
5	1646	0.145234759157	0.01
5	1647	0.145234759157	0
5	1709	0.147749178478	0.01
5	1710	0.147749178478	0
5	1982	0.176528328691	0.01
5	1983	0.176528328691	0
5	2045	0.187116670006	0.01
5	2046	0.187116670006	0
5	2135	0.189478737067	0.01
5	2136	0.189478737067	0
5	2192	0.19326835671	0.01
5	2193	0.19326835671	0
5	2234	0.197199482283	0.01
5	2235	0.197199482283	0
5	2255	0.197591313847	0.01
5	2256	0.197591313847	0
5	2318	0.203364556955	0.01
5	2319	0.203364556955	0
5	2591	0.235294023376	0.01
5	2592	0.235294023376	0
5	2633	0.238096793461	0.01
5	2634	0.238096793461	0
5	2675	0.239828068022	0.01
5	2676	0.239828068022	0
5	2696	0.24099762212	0.01
5	2697	0.24099762212	0
5	2843	0.252229305135	0.01
5	2844	0.252229305135	0
5	2885	0.256829444712	0.01
5	2886	0.256829444712	0
5	3017	0.274032761289	0.01
5	3018	0.274032761289	0
5	3053	0.275043109042	0.01
5	3054	0.275043109042	0
5	3347	0.312533423638	0.01
5	3348	0.312533423638	0
5	3410	0.313813991291	0.01
5	3411	0.313813991291	0
5	3494	0.320370454135	0.01
5	3495	0.320370454135	0
5	3683	0.341612826105	0.01
5	3684	0.341612826105	0
5	3704	0.344696974506	0.01
5	3705	0.344696974506	0
5	3809	0.351809453878	0.01
5	3810	0.351809453878	0
5	3872	0.360388410289	0.01
5	3873	0.360388410289	0
5	3914	0.363641814444	0.01
5	3915	0.363641814444	0
5	3935	0.363735821951	0.01
5	3936	0.363735821951	0
5	3998	0.374744281052	0.01
5	3999	0.374744281052	0
5	4103	0.385162087594	0.01
5	4104	0.385162087594	0
5	4166	0.38718559198	0.01
5	4167	0.38718559198	0
5	4289	0.395233565978	0.01
5	4290	0.395233565978	0
5	4318	0.395318845978	0.01
5	4319	0.395318845978	0
5	4439	0.406606972803	0.01
5	4440	0.406606972803	0
5	4733	0.43935840458	0.01
5	4734	0.43935840458	0
5	4796	0.445284644855	0.01
5	4797	0.445284644855	0
5	5132	0.483714710687	0.01
5	5133	0.483714710687	0
5	5195	0.492593324791	0.01
5	5196	0.492593324791	0
5	5237	0.4995513194	0.01
5	5238	0.4995513194	0
5	5657	0.530806002977	0.01
5	5658	0.530806002977	0
5	5678	0.532261742761	0.01
5	5679	0.532261742761	0
5	5699	0.533347213746	0.01
5	5700	0.533347213746	0
5	5783	0.536889455068	0.01
5	5784	0.536889455068	0
5	5888	0.545826745851	0.01
5	5889	0.545826745851	0
5	6203	0.580552100644	0.01
5	6204	0.580552100644	0
5	6371	0.592722295597	0.01
5	6372	0.592722295597	0
5	7001	0.660376200796	0.01
5	7002	0.660376200796	0
5	7295	0.697475806715	0.01
5	7296	0.697475806715	0
5	7316	0.698034507244	0.01
5	7317	0.698034507244	0
5	7463	0.702174296471	0.01
5	7464	0.702174296471	0
5	7505	0.704709353522	0.01
5	7506	0.704709353522	0
5	7547	0.708945924536	0.01
5	7548	0.708945924536	0
5	7736	0.735268113161	0.01
5	7737	0.735268113161	0
5	7757	0.735784942219	0.01
5	7758	0.735784942219	0
5	7904	0.744394178586	0.01
5	7905	0.744394178586	0
5	7967	0.755760143539	0.01
5	7968	0.755760143539	0
5	8009	0.764673929308	0.01
5	8010	0.764673929308	0
5	8114	0.777771783022	0.01
5	8115	0.777771783022	0
5	8156	0.78015931175	0.01
5	8157	0.78015931175	0
5	8219	0.782675297881	0.01
5	8220	0.782675297881	0
5	8576	0.8115660538	0.01
5	8577	0.8115660538	0
5	8912	0.849032999938	0.01
5	8913	0.849032999938	0
5	9044	0.861575032639	0.01
5	9045	0.861575032639	0
5	9248	0.885264214347	0.01
5	9249	0.885264214347	0
5	9332	0.895642715102	0.01
5	9333	0.895642715102	0
5	9458	0.902976391834	0.01
5	9459	0.902976391834	0
5	9521	0.908518100124	0.01
5	9522	0.908518100124	0
5	9542	0.910571577811	0.01
5	9543	0.910571577811	0
5	9626	0.921962154318	0.01
5	9627	0.921962154318	0
5	9710	0.928567185115	0.01
5	9711	0.928567185115	0
5	9731	0.931173586409	0.01
5	9732	0.931173586409	0
5	9815	0.944298666339	0.01
5	9816	0.944298666339	0
5	9878	0.946697901533	0.01
5	9879	0.946697901533	0
5	9899	0.953079787589	0.01
5	9900	0.953079787589	0
5	9926	0.953339765041	0.01
5	9927	0.953339765041	0
5	10088	0.96577327282	0.01
5	10089	0.96577327282	0
5	10109	0.968192469268	0.01
5	10110	0.968192469268	0
5	10214	0.971444629448	0.01
5	10215	0.971444629448	0
5	10304	0.985191428986	0.01
5	10305	0.985191428986	0
5	10382	0.988433420121	0.01
5	10383	0.988433420121	0
5	10592	1.000623413573	0.01
5	10593	1.000623413573	0
5	10655	1.001956819806	0.01
5	10656	1.001956819806	0
5	10907	1.03016317929	0.01
5	10908	1.03016317929	0
5	11046	1.038945330077	0.01
5	11047	1.038945330077	0
5	11243	1.050254514869	0.01
5	11244	1.050254514869	0
5	11306	1.065632802014	0.01
5	11307	1.065632802014	0
5	11495	1.077789706748	0.01
5	11496	1.077789706748	0
5	11642	1.098705272474	0.01
5	11643	1.098705272474	0
5	11747	1.119814160218	0.01
5	11748	1.119814160218	0
5	11852	1.135868747849	0.01
5	11853	1.135868747849	0
5	11957	1.142763093227	0.01
5	11958	1.142763093227	0
5	11999	1.152383212493	0.01
5	12000	1.152383212493	0
5	12020	1.152516464941	0.01
5	12021	1.152516464941	0
5	12272	1.189113038249	0.01
5	12273	1.189113038249	0
5	12314	1.19225301723	0.01
5	12315	1.19225301723	0
5	12398	1.197537689513	0.01
5	12399	1.197537689513	0
5	12440	1.201073655266	0.01
5	12441	1.201073655266	0
5	12587	1.206200801692	0.01
5	12588	1.206200801692	0
5	12713	1.226019705103	0.01
5	12714	1.226019705103	0
5	12852	1.249723580909	0.01
5	12853	1.249723580909	0
5	12944	1.25331651996	0.01
5	12945	1.25331651996	0
5	13301	1.279382237983	0.01
5	13302	1.279382237983	0
5	13406	1.290531112202	0.01
5	13407	1.290531112202	0
5	13574	1.304479803115	0.01
5	13575	1.304479803115	0
5	13637	1.307438821847	0.01
5	13638	1.307438821847	0
5	13658	1.308008487172	0.01
5	13659	1.308008487172	0
5	13763	1.314480234212	0.01
5	13764	1.314480234212	0
5	13860	1.320570878765	0.01
5	13861	1.320570878765	0
5	14120	1.339719301341	0.01
5	14121	1.339719301341	0
5	14141	1.342033511061	0.01
5	14142	1.342033511061	0
5	14288	1.357115663377	0.01
5	14289	1.357115663377	0
5	14309	1.357839854478	0.01
5	14310	1.357839854478	0
5	14519	1.366697460938	0.01
5	14520	1.366697460938	0
5	14540	1.367153841433	0.01
5	14541	1.367153841433	0
5	14603	1.379712776276	0.01
5	14604	1.379712776276	0
5	14624	1.380513564835	0.01
5	14625	1.380513564835	0
5	14687	1.3868528861	0.01
5	14688	1.3868528861	0
5	14750	1.390517399018	0.01
5	14751	1.390517399018	0
5	14813	1.395871442529	0.01
5	14814	1.395871442529	0
5	14918	1.40624389347	0.01
5	14919	1.40624389347	0
5	15008	1.414372877082	0.01
5	15009	1.414372877082	0
5	15065	1.415925732937	0.01
5	15066	1.415925732937	0
5	15107	1.419177441642	0.01
5	15108	1.419177441642	0
5	15128	1.420556973961	0.01
5	15129	1.420556973961	0
5	15170	1.42449754968	0.01
5	15171	1.42449754968	0
5	15254	1.426087669848	0.01
5	15255	1.426087669848	0
5	15296	1.427473538062	0.01
5	15297	1.427473538062	0
5	15407	1.436122919156	0.01
5	15408	1.436122919156	0
5	15527	1.45749713606	0.01
5	15528	1.45749713606	0
5	15611	1.462589160929	0.01
5	15612	1.462589160929	0
5	15695	1.474301797878	0.01
5	15696	1.474301797878	0
5	15758	1.478272607378	0.01
5	15759	1.478272607378	0
5	15779	1.478547028382	0.01
5	15780	1.478547028382	0
5	15863	1.488654720013	0.01
5	15864	1.488654720013	0
5	15926	1.490404670495	0.01
5	15927	1.490404670495	0
5	15989	1.494090499891	0.01
5	15990	1.494090499891	0
6	145	0.00008432	0.01
6	150	0.00008432	0
6	239	0.009069923885	0.01
6	240	0.009069923885	0
6	302	0.016941935285	0.01
6	303	0.016941935285	0
6	386	0.026711999549	0.01
6	387	0.026711999549	0
6	512	0.03024359094	0.01
6	513	0.03024359094	0
6	575	0.036738054423	0.01
6	576	0.036738054423	0
6	596	0.044264795556	0.01
6	597	0.044264795556	0
6	665	0.050803621228	0.01
6	666	0.050803621228	0
6	932	0.076786162086	0.01
6	933	0.076786162086	0
6	1058	0.097195084245	0.01
6	1059	0.097195084245	0
6	1100	0.104544728457	0.01
6	1101	0.104544728457	0
6	1184	0.115904117874	0.01
6	1185	0.115904117874	0
6	1310	0.124627329824	0.01
6	1311	0.124627329824	0
6	1352	0.12574679143	0.01
6	1353	0.12574679143	0
6	1457	0.13216373845	0.01
6	1458	0.13216373845	0
6	1520	0.138254562682	0.01
6	1521	0.138254562682	0
6	1541	0.139707342955	0.01
6	1542	0.139707342955	0
6	1562	0.139897028647	0.01
6	1563	0.139897028647	0
6	1596	0.143814736754	0.01
6	1597	0.143814736754	0
6	1667	0.145436101648	0.01
6	1668	0.145436101648	0
6	1793	0.155031581422	0.01
6	1794	0.155031581422	0
6	1814	0.159486766373	0.01
6	1815	0.159486766373	0
6	1898	0.168981712208	0.01
6	1899	0.168981712208	0
6	1919	0.170027324466	0.01
6	1920	0.170027324466	0
6	1940	0.170648477371	0.01
6	1941	0.170648477371	0
6	2360	0.205650614216	0.01
6	2361	0.205650614216	0
6	2465	0.21622887835	0.01
6	2466	0.21622887835	0
6	2507	0.226816305501	0.01
6	2508	0.226816305501	0
6	2549	0.229737110834	0.01
6	2550	0.229737110834	0
6	2612	0.236016526644	0.01
6	2613	0.236016526644	0
6	2738	0.245785167385	0.01
6	2739	0.245785167385	0
6	2801	0.249600725819	0.01
6	2802	0.249600725819	0
6	2822	0.251789531784	0.01
6	2823	0.251789531784	0
6	3095	0.281661430703	0.01
6	3096	0.281661430703	0
6	3137	0.287984796667	0.01
6	3138	0.287984796667	0
6	3536	0.325604069512	0.01
6	3537	0.325604069512	0
6	3767	0.350643187343	0.01
6	3768	0.350643187343	0
6	3788	0.351629690427	0.01
6	3789	0.351629690427	0
6	4040	0.377032735507	0.01
6	4041	0.377032735507	0
6	4355	0.395445560222	0.01
6	4356	0.395445560222	0
6	4397	0.398592776831	0.01
6	4398	0.398592776831	0
6	4544	0.411880355569	0.01
6	4545	0.411880355569	0
6	4586	0.416923793635	0.01
6	4587	0.416923793635	0
6	4754	0.439561129394	0.01
6	4755	0.439561129394	0
6	4817	0.445524923337	0.01
6	4818	0.445524923337	0
6	4901	0.457547309009	0.01
6	4902	0.457547309009	0
6	5061	0.474356531054	0.01
6	5062	0.474356531054	0
6	5216	0.495704835554	0.01
6	5217	0.495704835554	0
6	5300	0.503323513267	0.01
6	5301	0.503323513267	0
6	5342	0.50834662125	0.01
6	5343	0.50834662125	0
6	5447	0.517991156905	0.01
6	5448	0.517991156905	0
6	5531	0.521580429064	0.01
6	5532	0.521580429064	0
6	5573	0.525006425311	0.01
6	5574	0.525006425311	0
6	5726	0.534630175869	0.01
6	5727	0.534630175869	0
6	5762	0.535599403415	0.01
6	5763	0.535599403415	0
6	5804	0.539969683553	0.01
6	5805	0.539969683553	0
6	5909	0.547995203411	0.01
6	5910	0.547995203411	0
6	6098	0.558553699498	0.01
6	6099	0.558553699498	0
6	6413	0.599931797103	0.01
6	6414	0.599931797103	0
6	6434	0.60155049797	0.01
6	6435	0.60155049797	0
6	6665	0.625052270868	0.01
6	6666	0.625052270868	0
6	6707	0.641519461881	0.01
6	6708	0.641519461881	0
6	6875	0.649938271498	0.01
6	6876	0.649938271498	0
6	6917	0.655981262216	0.01
6	6918	0.655981262216	0
6	7064	0.668784604254	0.01
6	7065	0.668784604254	0
6	7085	0.671407897346	0.01
6	7086	0.671407897346	0
6	7106	0.671525729665	0.01
6	7107	0.671525729665	0
6	7211	0.686003670485	0.01
6	7212	0.686003670485	0
6	7232	0.687886620237	0.01
6	7233	0.687886620237	0
6	7253	0.692032745664	0.01
6	7254	0.692032745664	0
6	7358	0.699394056664	0.01
6	7359	0.699394056664	0
6	7421	0.701372351739	0.01
6	7422	0.701372351739	0
6	7589	0.71715647896	0.01
6	7590	0.71715647896	0
6	7694	0.729344446993	0.01
6	7695	0.729344446993	0
6	7778	0.736276444688	0.01
6	7779	0.736276444688	0
6	7925	0.748286153753	0.01
6	7926	0.748286153753	0
6	7988	0.755956950299	0.01
6	7989	0.755956950299	0
6	8051	0.769853720937	0.01
6	8052	0.769853720937	0
6	8093	0.773592585896	0.01
6	8094	0.773592585896	0
6	8135	0.778671237123	0.01
6	8136	0.778671237123	0
6	8198	0.781026482857	0.01
6	8199	0.781026482857	0
6	8261	0.783495075545	0.01
6	8262	0.783495075545	0
6	8345	0.796948549877	0.01
6	8346	0.796948549877	0
6	8387	0.799528677516	0.01
6	8388	0.799528677516	0
6	8484	0.802463754035	0.01
6	8485	0.802463754035	0
6	8534	0.809154891272	0.01
6	8535	0.809154891272	0
6	8765	0.830441592217	0.01
6	8766	0.830441592217	0
6	8828	0.841816977272	0.01
6	8829	0.841816977272	0
6	8975	0.853120532731	0.01
6	8976	0.853120532731	0
6	8996	0.855565442951	0.01
6	8997	0.855565442951	0
6	9051	0.861653772088	0.01
6	9052	0.861653772088	0
6	9080	0.864709821106	0.01
6	9081	0.864709821106	0
6	9101	0.866185781435	0.01
6	9102	0.866185781435	0
6	9122	0.866394453621	0.01
6	9123	0.866394453621	0
6	9164	0.868997967736	0.01
6	9165	0.868997967736	0
6	9290	0.890333600611	0.01
6	9291	0.890333600611	0
6	9311	0.894259330893	0.01
6	9312	0.894259330893	0
6	9563	0.912040764261	0.01
6	9564	0.912040764261	0
6	9794	0.942572610957	0.01
6	9795	0.942572610957	0
6	9857	0.946336904472	0.01
6	9858	0.946336904472	0
6	9962	0.953639181124	0.01
6	9963	0.953639181124	0
6	9983	0.955307927536	0.01
6	9984	0.955307927536	0
6	10046	0.960836311243	0.01
6	10047	0.960836311243	0
6	10193	0.971228367609	0.01
6	10194	0.971228367609	0
6	10445	0.991168759622	0.01
6	10446	0.991168759622	0
6	10563	0.999502542028	0.01
6	10564	0.999502542028	0
6	10718	1.006197947937	0.01
6	10719	1.006197947937	0
6	10802	1.019941378081	0.01
6	10803	1.019941378081	0
6	10865	1.022393359007	0.01
6	10866	1.022393359007	0
6	10928	1.030427276634	0.01
6	10929	1.030427276634	0
6	10949	1.03089415407	0.01
6	10950	1.03089415407	0
6	11285	1.063579118078	0.01
6	11286	1.063579118078	0
6	11327	1.06688821689	0.01
6	11328	1.06688821689	0
6	11432	1.07571702234	0.01
6	11433	1.07571702234	0
6	11516	1.084402679655	0.01
6	11517	1.084402679655	0
6	11558	1.093728798208	0.01
6	11559	1.093728798208	0
6	11621	1.09619295643	0.01
6	11622	1.09619295643	0
6	11663	1.098828727558	0.01
6	11664	1.098828727558	0
6	11810	1.128650734313	0.01
6	11811	1.128650734313	0
6	11936	1.140979538943	0.01
6	11937	1.140979538943	0
6	11978	1.143140501109	0.01
6	11979	1.143140501109	0
6	12083	1.157982925936	0.01
6	12084	1.157982925936	0
6	12125	1.159586266881	0.01
6	12126	1.159586266881	0
6	12419	1.19966576343	0.01
6	12420	1.19966576343	0
6	12487	1.201771096312	0.01
6	12488	1.201771096312	0
6	12545	1.204311210096	0.01
6	12546	1.204311210096	0
6	12566	1.205340893733	0.01
6	12567	1.205340893733	0
6	12629	1.210551681944	0.01
6	12630	1.210551681944	0
6	12797	1.246641091994	0.01
6	12798	1.246641091994	0
6	12902	1.250692920817	0.01
6	12903	1.250692920817	0
6	13133	1.265619242459	0.01
6	13134	1.265619242459	0
6	13322	1.280341284039	0.01
6	13323	1.280341284039	0
6	13490	1.296970941846	0.01
6	13491	1.296970941846	0
6	13532	1.301735727672	0.01
6	13533	1.301735727672	0
6	13553	1.302751068511	0.01
6	13554	1.302751068511	0
6	13595	1.305902668798	0.01
6	13596	1.305902668798	0
6	13616	1.307312347642	0.01
6	13617	1.307312347642	0
6	13784	1.316275639692	0.01
6	13785	1.316275639692	0
6	13889	1.32371147161	0.01
6	13890	1.32371147161	0
6	13931	1.327045504994	0.01
6	13932	1.327045504994	0
6	13994	1.331824684869	0.01
6	13995	1.331824684869	0
6	14099	1.338944765525	0.01
6	14100	1.338944765525	0
6	14225	1.350884899231	0.01
6	14226	1.350884899231	0
6	14246	1.353888150034	0.01
6	14247	1.353888150034	0
6	14267	1.355852768893	0.01
6	14268	1.355852768893	0
6	14372	1.360533833425	0.01
6	14373	1.360533833425	0
6	14645	1.382794673319	0.01
6	14646	1.382794673319	0
6	14729	1.39011012671	0.01
6	14730	1.39011012671	0
6	14855	1.398726801628	0.01
6	14856	1.398726801628	0
6	14876	1.399086829925	0.01
6	14877	1.399086829925	0
6	15015	1.414395314114	0.01
6	15016	1.414395314114	0
6	15233	1.425833267905	0.01
6	15234	1.425833267905	0
6	15317	1.427905119728	0.01
6	15318	1.427905119728	0
6	15380	1.435753489924	0.01
6	15381	1.435753489924	0
6	15569	1.459893654229	0.01
6	15570	1.459893654229	0
6	15821	1.483332350637	0.01
6	15822	1.483332350637	0
6	15842	1.486076985857	0.01
6	15843	1.486076985857	0
7	146	0.00008432	0.01
7	151	0.00008432	0
7	281	0.01264362758	0.01
7	282	0.01264362758	0
7	323	0.018154112447	0.01
7	324	0.018154112447	0
7	449	0.028535705454	0.01
7	450	0.028535705454	0
7	827	0.061684828253	0.01
7	828	0.061684828253	0
7	953	0.079559704887	0.01
7	954	0.079559704887	0
7	1247	0.118011923578	0.01
7	1248	0.118011923578	0
7	1688	0.146956128358	0.01
7	1689	0.146956128358	0
7	1730	0.151841698851	0.01
7	1731	0.151841698851	0
7	1961	0.175130832593	0.01
7	1962	0.175130832593	0
7	2024	0.186119957269	0.01
7	2025	0.186119957269	0
7	2066	0.187994217929	0.01
7	2067	0.187994217929	0
7	2171	0.192428258215	0.01
7	2172	0.192428258215	0
7	2213	0.196949278817	0.01
7	2214	0.196949278817	0
7	2339	0.205393556752	0.01
7	2340	0.205393556752	0
7	2381	0.206469907834	0.01
7	2382	0.206469907834	0
7	2402	0.208812923022	0.01
7	2403	0.208812923022	0
7	2486	0.218893115476	0.01
7	2487	0.218893115476	0
7	2528	0.227612274012	0.01
7	2529	0.227612274012	0
7	2570	0.232962920783	0.01
7	2571	0.232962920783	0
7	2654	0.239400730799	0.01
7	2655	0.239400730799	0
7	2717	0.243525743098	0.01
7	2718	0.243525743098	0
7	2864	0.254206465069	0.01
7	2865	0.254206465069	0
7	2975	0.265069158878	0.01
7	2976	0.265069158878	0
7	3116	0.283267348071	0.01
7	3117	0.283267348071	0
7	3158	0.290393184004	0.01
7	3159	0.290393184004	0
7	3179	0.290966453268	0.01
7	3180	0.290966453268	0
7	3221	0.300251238237	0.01
7	3222	0.300251238237	0
7	3389	0.313693690959	0.01
7	3390	0.313693690959	0
7	3431	0.317205451853	0.01
7	3432	0.317205451853	0
7	3473	0.318469338217	0.01
7	3474	0.318469338217	0
7	3515	0.322296347706	0.01
7	3516	0.322296347706	0
7	3557	0.327645191464	0.01
7	3558	0.327645191464	0
7	3578	0.328308165479	0.01
7	3579	0.328308165479	0
7	3620	0.33075211996	0.01
7	3621	0.33075211996	0
7	3641	0.339080555121	0.01
7	3642	0.339080555121	0
7	3725	0.347441530441	0.01
7	3726	0.347441530441	0
7	3830	0.354849119945	0.01
7	3831	0.354849119945	0
7	3851	0.355716824768	0.01
7	3852	0.355716824768	0
7	4061	0.382209384055	0.01
7	4062	0.382209384055	0
7	4124	0.385625925725	0.01
7	4125	0.385625925725	0
7	4250	0.390697926958	0.01
7	4251	0.390697926958	0
7	4303	0.395315235918	0.01
7	4304	0.395315235918	0
7	4418	0.403746066239	0.01
7	4419	0.403746066239	0
7	4460	0.407149533621	0.01
7	4461	0.407149533621	0
7	4565	0.412828575156	0.01
7	4566	0.412828575156	0
7	4628	0.421794483864	0.01
7	4629	0.421794483864	0
7	4712	0.431981071164	0.01
7	4713	0.431981071164	0
7	4775	0.443377150799	0.01
7	4776	0.443377150799	0
7	4943	0.462111749598	0.01
7	4944	0.462111749598	0
7	4991	0.467161937076	0.01
7	4992	0.467161937076	0
7	5153	0.488456931037	0.01
7	5154	0.488456931037	0
7	5271	0.501376023725	0.01
7	5272	0.501376023725	0
7	5397	0.511703993831	0.01
7	5398	0.511703993831	0
7	5426	0.511897791644	0.01
7	5427	0.511897791644	0
7	5489	0.5182490688	0.01
7	5490	0.5182490688	0
7	5615	0.529042270787	0.01
7	5616	0.529042270787	0
7	5733	0.534641881488	0.01
7	5734	0.534641881488	0
7	5846	0.543080766214	0.01
7	5847	0.543080766214	0
7	5867	0.543422800398	0.01
7	5868	0.543422800398	0
7	5993	0.554012894252	0.01
7	5994	0.554012894252	0
7	6182	0.576699234179	0.01
7	6183	0.576699234179	0
7	6266	0.584400002774	0.01
7	6267	0.584400002774	0
7	6308	0.58544882113	0.01
7	6309	0.58544882113	0
7	6350	0.589792277689	0.01
7	6351	0.589792277689	0
7	6392	0.596126903866	0.01
7	6393	0.596126903866	0
7	6539	0.614524231717	0.01
7	6540	0.614524231717	0
7	6644	0.624083895956	0.01
7	6645	0.624083895956	0
7	6812	0.644103760911	0.01
7	6813	0.644103760911	0
7	7190	0.684602229299	0.01
7	7191	0.684602229299	0
7	7337	0.698465142819	0.01
7	7338	0.698465142819	0
7	7379	0.7006965349	0.01
7	7380	0.7006965349	0
7	7400	0.700883489604	0.01
7	7401	0.700883489604	0
7	7484	0.702758679116	0.01
7	7485	0.702758679116	0
7	7631	0.72351898972	0.01
7	7632	0.72351898972	0
7	7652	0.723842557766	0.01
7	7653	0.723842557766	0
7	7820	0.739150870029	0.01
7	7821	0.739150870029	0
7	8282	0.787942198909	0.01
7	8283	0.787942198909	0
7	8324	0.793958988774	0.01
7	8325	0.793958988774	0
7	8723	0.829103775579	0.01
7	8724	0.829103775579	0
7	8744	0.82979995229	0.01
7	8745	0.82979995229	0
7	8849	0.843419269533	0.01
7	8850	0.843419269533	0
7	8933	0.851110467544	0.01
7	8934	0.851110467544	0
7	9386	0.897506992808	0.01
7	9387	0.897506992808	0
7	9408	0.897592272808	0.01
7	9409	0.897592272808	0
7	9584	0.918115758736	0.01
7	9585	0.918115758736	0
7	9647	0.924206204863	0.01
7	9648	0.924206204863	0
7	9668	0.9266333898	0.01
7	9669	0.9266333898	0
7	9773	0.942180019178	0.01
7	9774	0.942180019178	0
7	9836	0.945109533763	0.01
7	9837	0.945109533763	0
7	10235	0.976680489177	0.01
7	10236	0.976680489177	0
7	10277	0.977930815076	0.01
7	10278	0.977930815076	0
7	10311	0.985216053503	0.01
7	10312	0.985216053503	0
7	10340	0.986632473851	0.01
7	10341	0.986632473851	0
7	10403	0.988555088259	0.01
7	10404	0.988555088259	0
7	10466	0.993597887592	0.01
7	10467	0.993597887592	0
7	10739	1.011950521621	0.01
7	10740	1.011950521621	0
7	10886	1.025760152578	0.01
7	10887	1.025760152578	0
7	11039	1.038916415161	0.01
7	11040	1.038916415161	0
7	11102	1.041671694531	0.01
7	11103	1.041671694531	0
7	11180	1.042322823179	0.01
7	11181	1.042322823179	0
7	11201	1.042415653423	0.01
7	11202	1.042415653423	0
7	11264	1.053499750965	0.01
7	11265	1.053499750965	0
7	11579	1.095059461921	0.01
7	11580	1.095059461921	0
7	11789	1.127648671693	0.01
7	11790	1.127648671693	0
7	11894	1.137603308127	0.01
7	11895	1.137603308127	0
7	12062	1.156217624557	0.01
7	12063	1.156217624557	0
7	12188	1.176045113603	0.01
7	12189	1.176045113603	0
7	12293	1.190051870573	0.01
7	12294	1.190051870573	0
7	12335	1.194649783751	0.01
7	12336	1.194649783751	0
7	12356	1.196122034124	0.01
7	12357	1.196122034124	0
7	12478	1.201712110824	0.01
7	12479	1.201712110824	0
7	12524	1.202997913197	0.01
7	12525	1.202997913197	0
7	12776	1.242474245873	0.01
7	12777	1.242474245873	0
7	12818	1.246925739267	0.01
7	12819	1.246925739267	0
7	12923	1.252025647605	0.01
7	12924	1.252025647605	0
7	12986	1.254668352246	0.01
7	12987	1.254668352246	0
7	13070	1.258603376357	0.01
7	13071	1.258603376357	0
7	13091	1.258743842269	0.01
7	13092	1.258743842269	0
7	13112	1.258858774771	0.01
7	13113	1.258858774771	0
7	13154	1.266483011613	0.01
7	13155	1.266483011613	0
7	13196	1.270115433802	0.01
7	13197	1.270115433802	0
7	13427	1.291559288447	0.01
7	13428	1.291559288447	0
7	13511	1.299709471756	0.01
7	13512	1.299709471756	0
7	13700	1.312693928112	0.01
7	13701	1.312693928112	0
7	13826	1.319386956832	0.01
7	13827	1.319386956832	0
7	13910	1.325221194542	0.01
7	13911	1.325221194542	0
7	13973	1.330902899379	0.01
7	13974	1.330902899379	0
7	14036	1.332901454758	0.01
7	14037	1.332901454758	0
7	14057	1.333804827199	0.01
7	14058	1.333804827199	0
7	14078	1.334390106188	0.01
7	14079	1.334390106188	0
7	14162	1.345179375273	0.01
7	14163	1.345179375273	0
7	14435	1.363970559615	0.01
7	14436	1.363970559615	0
7	14498	1.366165241224	0.01
7	14499	1.366165241224	0
7	14771	1.392089727312	0.01
7	14772	1.392089727312	0
7	15149	1.424137815608	0.01
7	15150	1.424137815608	0
7	15338	1.429124738937	0.01
7	15339	1.429124738937	0
7	15359	1.43009271366	0.01
7	15360	1.43009271366	0
7	15414	1.43619754211	0.01
7	15415	1.43619754211	0
7	15443	1.437063712054	0.01
7	15444	1.437063712054	0
7	15464	1.443199754151	0.01
7	15465	1.443199754151	0
7	15548	1.459313074142	0.01
7	15549	1.459313074142	0
7	15590	1.460294269368	0.01
7	15591	1.460294269368	0
7	15653	1.4658508585	0.01
7	15654	1.4658508585	0
7	15737	1.477877996338	0.01
7	15738	1.477877996338	0
7	15968	1.492015829633	0.01
7	15969	1.492015829633	0
7	16010	1.494666760647	0.01
7	16011	1.494666760647	0
8	147	0.00008432	0.01
8	152	0.00008432	0
8	344	0.018680362121	0.01
8	345	0.018680362121	0
8	365	0.023531643758	0.01
8	366	0.023531643758	0
8	491	0.029286835727	0.01
8	492	0.029286835727	0
8	554	0.034122856776	0.01
8	555	0.034122856776	0
8	672	0.050844968779	0.01
8	673	0.050844968779	0
8	890	0.068928661422	0.01
8	891	0.068928661422	0
8	911	0.070440969959	0.01
8	912	0.070440969959	0
8	1016	0.090844112538	0.01
8	1017	0.090844112538	0
8	1163	0.106984133287	0.01
8	1164	0.106984133287	0
8	1205	0.11719845203	0.01
8	1206	0.11719845203	0
8	1268	0.118745748835	0.01
8	1269	0.118745748835	0
8	1478	0.132959395636	0.01
8	1479	0.132959395636	0
8	1499	0.135399880543	0.01
8	1500	0.135399880543	0
8	1589	0.143803227599	0.01
8	1590	0.143803227599	0
8	1751	0.15341703699	0.01
8	1752	0.15341703699	0
8	1856	0.164868426537	0.01
8	1857	0.164868426537	0
8	2087	0.188131937154	0.01
8	2088	0.188131937154	0
8	2142	0.189512224038	0.01
8	2143	0.189512224038	0
8	2276	0.198872839636	0.01
8	2277	0.198872839636	0
8	2423	0.208931549688	0.01
8	2424	0.208931549688	0
8	2444	0.210690685142	0.01
8	2445	0.210690685142	0
8	2948	0.264291688644	0.01
8	2949	0.264291688644	0
8	3024	0.274042707986	0.01
8	3025	0.274042707986	0
8	3311	0.309778591709	0.01
8	3312	0.309778591709	0
8	3368	0.313102694119	0.01
8	3369	0.313102694119	0
8	3452	0.317556888738	0.01
8	3453	0.317556888738	0
8	3599	0.329225624003	0.01
8	3600	0.329225624003	0
8	3662	0.341017519274	0.01
8	3663	0.341017519274	0
8	3893	0.361049924499	0.01
8	3894	0.361049924499	0
8	3956	0.36488552664	0.01
8	3957	0.36488552664	0
8	4082	0.38335880315	0.01
8	4083	0.38335880315	0
8	4145	0.386433980388	0.01
8	4146	0.386433980388	0
8	4296	0.395265270808	0.01
8	4297	0.395265270808	0
8	4376	0.39684868587	0.01
8	4377	0.39684868587	0
8	4502	0.409013772404	0.01
8	4503	0.409013772404	0
8	4649	0.423124016497	0.01
8	4650	0.423124016497	0
8	4670	0.425648216426	0.01
8	4671	0.425648216426	0
8	4838	0.447863285411	0.01
8	4839	0.447863285411	0
8	4859	0.449098551885	0.01
8	4860	0.449098551885	0
8	4880	0.452628753218	0.01
8	4881	0.452628753218	0
8	4998	0.467196938804	0.01
8	4999	0.467196938804	0
8	5027	0.470071043565	0.01
8	5028	0.470071043565	0
8	5111	0.478776401828	0.01
8	5112	0.478776401828	0
8	5174	0.490570231164	0.01
8	5175	0.490570231164	0
8	5264	0.501348580005	0.01
8	5265	0.501348580005	0
8	5321	0.503969152422	0.01
8	5322	0.503969152422	0
8	5363	0.509483112323	0.01
8	5364	0.509483112323	0
8	5510	0.518807141127	0.01
8	5511	0.518807141127	0
8	5552	0.522203788453	0.01
8	5553	0.522203788453	0
8	5594	0.527040145319	0.01
8	5595	0.527040145319	0
8	5825	0.540869937384	0.01
8	5826	0.540869937384	0
8	5930	0.54941073474	0.01
8	5931	0.54941073474	0
8	5972	0.553282035661	0.01
8	5973	0.553282035661	0
8	6014	0.555782850611	0.01
8	6015	0.555782850611	0
8	6035	0.557305786864	0.01
8	6036	0.557305786864	0
8	6119	0.561887515704	0.01
8	6120	0.561887515704	0
8	6245	0.584136662276	0.01
8	6246	0.584136662276	0
8	6287	0.585192788712	0.01
8	6288	0.585192788712	0
8	6476	0.610385610013	0.01
8	6477	0.610385610013	0
8	6497	0.610768439142	0.01
8	6498	0.610768439142	0
8	6518	0.612541694893	0.01
8	6519	0.612541694893	0
8	6560	0.619640874165	0.01
8	6561	0.619640874165	0
8	6581	0.621466260184	0.01
8	6582	0.621466260184	0
8	6623	0.62278809728	0.01
8	6624	0.62278809728	0
8	6728	0.641627386146	0.01
8	6729	0.641627386146	0
8	6770	0.643135296248	0.01
8	6771	0.643135296248	0
8	6791	0.643473164104	0.01
8	6792	0.643473164104	0
8	6833	0.644189917947	0.01
8	6834	0.644189917947	0
8	6938	0.65614430361	0.01
8	6939	0.65614430361	0
8	6959	0.656663429132	0.01
8	6960	0.656663429132	0
8	7127	0.676791156494	0.01
8	7128	0.676791156494	0
8	7148	0.681253684699	0.01
8	7149	0.681253684699	0
8	7568	0.71009980222	0.01
8	7569	0.71009980222	0
8	7610	0.719471189397	0.01
8	7611	0.719471189397	0
8	7673	0.72855082967	0.01
8	7674	0.72855082967	0
8	7715	0.730350403086	0.01
8	7716	0.730350403086	0
8	7862	0.740065224667	0.01
8	7863	0.740065224667	0
8	7883	0.743174902717	0.01
8	7884	0.743174902717	0
8	7946	0.752693199792	0.01
8	7947	0.752693199792	0
8	8072	0.772664919467	0.01
8	8073	0.772664919467	0
8	8177	0.780744720001	0.01
8	8178	0.780744720001	0
8	8240	0.782805040486	0.01
8	8241	0.782805040486	0
8	8303	0.79123482824	0.01
8	8304	0.79123482824	0
8	8366	0.797977273936	0.01
8	8367	0.797977273936	0
8	8555	0.809388652965	0.01
8	8556	0.809388652965	0
8	8639	0.821307234002	0.01
8	8640	0.821307234002	0
8	8660	0.823286911355	0.01
8	8661	0.823286911355	0
8	8786	0.831106668564	0.01
8	8787	0.831106668564	0
8	8807	0.837618975883	0.01
8	8808	0.837618975883	0
8	8870	0.843664788066	0.01
8	8871	0.843664788066	0
8	8954	0.853005391392	0.01
8	8955	0.853005391392	0
8	9017	0.859344691586	0.01
8	9018	0.859344691586	0
8	9185	0.870223735922	0.01
8	9186	0.870223735922	0
8	9206	0.874080612862	0.01
8	9207	0.874080612862	0
8	9393	0.897559050476	0.01
8	9394	0.897559050476	0
8	9437	0.901296683414	0.01
8	9438	0.901296683414	0
8	9479	0.904492429963	0.01
8	9480	0.904492429963	0
8	9605	0.920489624381	0.01
8	9606	0.920489624381	0
8	9752	0.932120757215	0.01
8	9753	0.932120757215	0
8	9933	0.953348223754	0.01
8	9934	0.953348223754	0
8	10004	0.955673473938	0.01
8	10005	0.955673473938	0
8	10151	0.96878319762	0.01
8	10152	0.96878319762	0
8	10256	0.97762105418	0.01
8	10257	0.97762105418	0
8	10424	0.988855659175	0.01
8	10425	0.988855659175	0
8	10487	0.995076028366	0.01
8	10488	0.995076028366	0
8	10508	0.997100616003	0.01
8	10509	0.997100616003	0
8	10535	0.999393059255	0.01
8	10536	0.999393059255	0
8	10613	1.000957816959	0.01
8	10614	1.000957816959	0
8	10676	1.005352370864	0.01
8	10677	1.005352370864	0
8	10697	1.00566163378	0.01
8	10698	1.00566163378	0
8	10823	1.020157181544	0.01
8	10824	1.020157181544	0
8	10844	1.021028267377	0.01
8	10845	1.021028267377	0
8	10970	1.034861432039	0.01
8	10971	1.034861432039	0
8	10991	1.037207990532	0.01
8	10992	1.037207990532	0
8	11075	1.040663186369	0.01
8	11076	1.040663186369	0
8	11109	1.04172005811	0.01
8	11110	1.04172005811	0
8	11151	1.041885719054	0.01
8	11152	1.041885719054	0
8	11369	1.068411304209	0.01
8	11370	1.068411304209	0
8	11390	1.069072224316	0.01
8	11391	1.069072224316	0
8	11453	1.076254689117	0.01
8	11454	1.076254689117	0
8	11726	1.114194926948	0.01
8	11727	1.114194926948	0
8	11768	1.126767296904	0.01
8	11769	1.126767296904	0
8	11831	1.13342572177	0.01
8	11832	1.13342572177	0
8	12041	1.154163336401	0.01
8	12042	1.154163336401	0
8	12104	1.158428694521	0.01
8	12105	1.158428694521	0
8	12167	1.173589383819	0.01
8	12168	1.173589383819	0
8	12209	1.180097357243	0.01
8	12210	1.180097357243	0
8	12236	1.186976792028	0.01
8	12237	1.186976792028	0
8	12251	1.187062072028	0.01
8	12252	1.187062072028	0
8	12377	1.197219226121	0.01
8	12378	1.197219226121	0
8	12650	1.214485559918	0.01
8	12651	1.214485559918	0
8	12692	1.218695492898	0.01
8	12693	1.218695492898	0
8	12734	1.234248436502	0.01
8	12735	1.234248436502	0
8	12755	1.239548052295	0.01
8	12756	1.239548052295	0
8	12965	1.254422349838	0.01
8	12966	1.254422349838	0
8	13020	1.255843604952	0.01
8	13021	1.255843604952	0
8	13343	1.286392202742	0.01
8	13344	1.286392202742	0
8	13385	1.289207442967	0.01
8	13386	1.289207442967	0
8	13469	1.294664020115	0.01
8	13470	1.294664020115	0
8	13742	1.314364595771	0.01
8	13743	1.314364595771	0
8	13853	1.320498986667	0.01
8	13854	1.320498986667	0
8	14015	1.33239394918	0.01
8	14016	1.33239394918	0
8	14204	1.3479314042	0.01
8	14205	1.3479314042	0
8	14330	1.359368310406	0.01
8	14331	1.359368310406	0
8	14351	1.359465664499	0.01
8	14352	1.359465664499	0
8	14414	1.362651502978	0.01
8	14415	1.362651502978	0
8	14456	1.364084033192	0.01
[...]
15	7829	0.739235190029	0
15	8291	0.788026518909	0
15	8333	0.794043308774	0
15	8732	0.829188095579	0
15	8753	0.82988427229	0
15	8858	0.843503589533	0
15	8942	0.851194787544	0
15	9402	0.897591312808	0
15	9425	0.897676592808	0
15	9593	0.918200078736	0
15	9656	0.924290524863	0
15	9677	0.9267177098	0
15	9782	0.942264339178	0
15	9845	0.945193853763	0
15	10244	0.976764809177	0
15	10286	0.978015135076	0
15	10328	0.985300373503	0
15	10349	0.986716793851	0
15	10412	0.988639408259	0
15	10475	0.993682207592	0
15	10748	1.012034841621	0
15	10895	1.025844472578	0
15	11055	1.039000735161	0
15	11124	1.041756014531	0
15	11195	1.042407143179	0
15	11210	1.042499973423	0
15	11273	1.053584070965	0
15	11588	1.095143781921	0
15	11798	1.127732991693	0
15	11903	1.137687628127	0
15	12071	1.156301944557	0
15	12197	1.176129433603	0
15	12302	1.190136190573	0
15	12344	1.194734103751	0
15	12365	1.196206354124	0
15	12502	1.201796430824	0
15	12533	1.203082233197	0
15	12785	1.242558565873	0
15	12827	1.247010059267	0
15	12932	1.252109967605	0
15	12995	1.254752672246	0
15	13085	1.258687696357	0
15	13106	1.258828162269	0
15	13121	1.258943094771	0
15	13163	1.266567331613	0
15	13205	1.270199753802	0
15	13436	1.291643608447	0
15	13520	1.299793791756	0
15	13709	1.312778248112	0
15	13835	1.319471276832	0
15	13919	1.325305514542	0
15	13982	1.330987219379	0
15	14045	1.332985774758	0
15	14066	1.333889147199	0
15	14087	1.334474426188	0
15	14171	1.345263695273	0
15	14450	1.364054879615	0
15	14507	1.366249561224	0
15	14780	1.392174047312	0
15	15158	1.424222135608	0
15	15347	1.429209058937	0
15	15368	1.43017703366	0
15	15431	1.43628186211	0
15	15452	1.437148032054	0
15	15473	1.443284074151	0
15	15557	1.459397394142	0
15	15599	1.460378589368	0
15	15662	1.4659351785	0
15	15746	1.477962316338	0
15	15977	1.492100149633	0
15	16019	1.494751080647	0
16	192	0.00016864	0.00016864
16	353	0.018764682121	0.00016864
16	374	0.023615963758	0.00016864
16	500	0.029371155727	0.00016864
16	563	0.034207176776	0.00016864
16	689	0.050929288779	0.00016864
16	899	0.069012981422	0.00016864
16	920	0.070525289959	0.00016864
16	1025	0.090928432538	0.00016864
16	1172	0.107068453287	0.00016864
16	1220	0.11728277203	0.00016864
16	1283	0.118830068835	0.00016864
16	1487	0.133043715636	0.00016864
16	1508	0.135484200543	0.00016864
16	1605	0.143887547599	0.00016864
16	1760	0.15350135699	0.00016864
16	1865	0.164952746537	0.00016864
16	2096	0.188216257154	0.00016864
16	2159	0.189596544038	0.00016864
16	2285	0.198957159636	0.00016864
16	2432	0.209015869688	0.00016864
16	2453	0.210775005142	0.00016864
16	2957	0.264376008644	0.00016864
16	3041	0.274127027986	0.00016864
16	3327	0.309862911709	0.00016864
16	3377	0.313187014119	0.00016864
16	3461	0.317641208738	0.00016864
16	3608	0.329309944003	0.00016864
16	3671	0.341101839274	0.00016864
16	3902	0.361134244499	0.00016864
16	3965	0.36496984664	0.00016864
16	4091	0.38344312315	0.00016864
16	4154	0.386518300388	0.00016864
16	4327	0.395349590808	0.00016864
16	4385	0.39693300587	0.00016864
16	4511	0.409098092404	0.00016864
16	4658	0.423208336497	0.00016864
16	4679	0.425732536426	0.00016864
16	4847	0.447947605411	0.00016864
16	4868	0.449182871885	0.00016864
16	4889	0.452713073218	0.00016864
16	5015	0.467281258804	0.00016864
16	5036	0.470155363565	0.00016864
16	5120	0.478860721828	0.00016864
16	5183	0.490654551164	0.00016864
16	5280	0.501432900005	0.00016864
16	5330	0.504053472422	0.00016864
16	5372	0.509567432323	0.00016864
16	5519	0.518891461127	0.00016864
16	5561	0.522288108453	0.00016864
16	5603	0.527124465319	0.00016864
16	5834	0.540954257384	0.00016864
16	5939	0.54949505474	0.00016864
16	5981	0.553366355661	0.00016864
16	6023	0.555867170611	0.00016864
16	6050	0.557390106864	0.00016864
16	6128	0.561971835704	0.00016864
16	6254	0.584220982276	0.00016864
16	6296	0.585277108712	0.00016864
16	6485	0.610469930013	0.00016864
16	6506	0.610852759142	0.00016864
16	6527	0.612626014893	0.00016864
16	6569	0.619725194165	0.00016864
16	6590	0.621550580184	0.00016864
16	6632	0.62287241728	0.00016864
16	6737	0.641711706146	0.00016864
16	6779	0.643219616248	0.00016864
16	6800	0.643557484104	0.00016864
16	6842	0.644274237947	0.00016864
16	6947	0.65622862361	0.00016864
16	6968	0.656747749132	0.00016864
16	7136	0.676875476494	0.00016864
16	7157	0.681338004699	0.00016864
16	7577	0.71018412222	0.00016864
16	7619	0.719555509397	0.00016864
16	7682	0.72863514967	0.00016864
16	7724	0.730434723086	0.00016864
16	7871	0.740149544667	0.00016864
16	7892	0.743259222717	0.00016864
16	7955	0.752777519792	0.00016864
16	8081	0.772749239467	0.00016864
16	8186	0.780829040001	0.00016864
16	8249	0.782889360486	0.00016864
16	8312	0.79131914824	0.00016864
16	8375	0.798061593936	0.00016864
16	8564	0.809472972965	0.00016864
16	8648	0.821391554002	0.00016864
16	8669	0.823371231355	0.00016864
16	8795	0.831190988564	0.00016864
16	8816	0.837703295883	0.00016864
16	8879	0.843749108066	0.00016864
16	8969	0.853089711392	0.00016864
16	9026	0.859429011586	0.00016864
16	9194	0.870308055922	0.00016864
16	9215	0.874164932862	0.00016864
16	9417	0.897643370476	0.00016864
16	9446	0.901381003414	0.00016864
16	9488	0.904576749963	0.00016864
16	9614	0.920573944381	0.00016864
16	9761	0.932205077215	0.00016864
16	9950	0.953432543754	0.00016864
16	10013	0.955757793938	0.00016864
16	10160	0.96886751762	0.00016864
16	10265	0.97770537418	0.00016864
16	10433	0.988939979175	0.00016864
16	10496	0.995160348366	0.00016864
16	10517	0.997184936003	0.00016864
16	10557	0.999477379255	0.00016864
16	10622	1.001042136959	0.00016864
16	10685	1.005436690864	0.00016864
16	10706	1.00574595378	0.00016864
16	10832	1.020241501544	0.00016864
16	10853	1.021112587377	0.00016864
16	10979	1.034945752039	0.00016864
16	11000	1.037292310532	0.00016864
16	11084	1.040747506369	0.00016864
16	11138	1.04180437811	0.00016864
16	11168	1.041970039054	0.00016864
16	11378	1.068495624209	0.00016864
16	11399	1.069156544316	0.00016864
16	11462	1.076339009117	0.00016864
16	11735	1.114279246948	0.00016864
16	11777	1.126851616904	0.00016864
16	11840	1.13351004177	0.00016864
16	12050	1.154247656401	0.00016864
16	12113	1.158513014521	0.00016864
16	12176	1.173673703819	0.00016864
16	12218	1.180181677243	0.00016864
16	12245	1.187061112028	0.00016864
16	12260	1.187146392028	0.000213356787
16	12386	1.197303546121	0.00016864
16	12659	1.214569879918	0.00016864
16	12701	1.218779812898	0.00016864
16	12743	1.234332756502	0.00016864
16	12764	1.239632372295	0.00016864
16	12974	1.254506669838	0.00016864
16	13037	1.255927924952	0.00016864
16	13352	1.286476522742	0.00016864
16	13394	1.289291762967	0.00016864
16	13478	1.294748340115	0.00016864
16	13757	1.314448915771	0.00016864
16	13869	1.320583306667	0.00016864
16	14024	1.33247826918	0.00016864
16	14213	1.3480157242	0.00016864
16	14345	1.359452630406	0.00016864
16	14360	1.359549984499	0.00016864
16	14423	1.362735822978	0.00016864
16	14465	1.364168353192	0.00016864
16	14591	1.379272969204	0.00016864
16	14675	1.386022478941	0.00016864
16	14948	1.407453475945	0.00016864
16	15053	1.414587318773	0.00016864
16	15200	1.425070209823	0.00016864
16	15515	1.456398504718	0.00016864
16	15725	1.477364867453	0.00016864
16	15899	1.489961279159	0.00016864
16	15914	1.490059423523	0.00016864
17	192	0.00016864	0
17	353	0.018764682121	0
17	374	0.023615963758	0
17	500	0.029371155727	0
17	563	0.034207176776	0
17	689	0.050929288779	0
17	899	0.069012981422	0
17	920	0.070525289959	0
17	1025	0.090928432538	0
17	1172	0.107068453287	0
17	1220	0.11728277203	0
17	1283	0.118830068835	0
17	1487	0.133043715636	0
17	1508	0.135484200543	0
17	1605	0.143887547599	0
17	1760	0.15350135699	0
17	1865	0.164952746537	0
17	2096	0.188216257154	0
17	2159	0.189596544038	0
17	2285	0.198957159636	0
17	2432	0.209015869688	0
17	2453	0.210775005142	0
17	2957	0.264376008644	0
17	3041	0.274127027986	0
17	3327	0.309862911709	0
17	3377	0.313187014119	0
17	3461	0.317641208738	0
17	3608	0.329309944003	0
17	3671	0.341101839274	0
17	3902	0.361134244499	0
17	3965	0.36496984664	0
17	4091	0.38344312315	0
17	4154	0.386518300388	0
17	4327	0.395349590808	0
17	4385	0.39693300587	0
17	4511	0.409098092404	0
17	4658	0.423208336497	0
17	4679	0.425732536426	0
17	4847	0.447947605411	0
17	4868	0.449182871885	0
17	4889	0.452713073218	0
17	5015	0.467281258804	0
17	5036	0.470155363565	0
17	5120	0.478860721828	0
17	5183	0.490654551164	0
17	5280	0.501432900005	0
17	5330	0.504053472422	0
17	5372	0.509567432323	0
17	5519	0.518891461127	0
17	5561	0.522288108453	0
17	5603	0.527124465319	0
17	5834	0.540954257384	0
17	5939	0.54949505474	0
17	5981	0.553366355661	0
17	6023	0.555867170611	0
17	6050	0.557390106864	0
17	6128	0.561971835704	0
17	6254	0.584220982276	0
17	6296	0.585277108712	0
17	6485	0.610469930013	0
17	6506	0.610852759142	0
17	6527	0.612626014893	0
17	6569	0.619725194165	0
17	6590	0.621550580184	0
17	6632	0.62287241728	0
17	6737	0.641711706146	0
17	6779	0.643219616248	0
17	6800	0.643557484104	0
17	6842	0.644274237947	0
17	6947	0.65622862361	0
17	6968	0.656747749132	0
17	7136	0.676875476494	0
17	7157	0.681338004699	0
17	7577	0.71018412222	0
17	7619	0.719555509397	0
17	7682	0.72863514967	0
17	7724	0.730434723086	0
17	7871	0.740149544667	0
17	7892	0.743259222717	0
17	7955	0.752777519792	0
17	8081	0.772749239467	0
17	8186	0.780829040001	0
17	8249	0.782889360486	0
17	8312	0.79131914824	0
17	8375	0.798061593936	0
17	8564	0.809472972965	0
17	8648	0.821391554002	0
17	8669	0.823371231355	0
17	8795	0.831190988564	0
17	8816	0.837703295883	0
17	8879	0.843749108066	0
17	8969	0.853089711392	0
17	9026	0.859429011586	0
17	9194	0.870308055922	0
17	9215	0.874164932862	0
17	9417	0.897643370476	0
17	9446	0.901381003414	0
17	9488	0.904576749963	0
17	9614	0.920573944381	0
17	9761	0.932205077215	0
17	9950	0.953432543754	0
17	10013	0.955757793938	0
17	10160	0.96886751762	0
17	10265	0.97770537418	0
17	10433	0.988939979175	0
17	10496	0.995160348366	0
17	10517	0.997184936003	0
17	10557	0.999477379255	0
17	10622	1.001042136959	0
17	10685	1.005436690864	0
17	10706	1.00574595378	0
17	10832	1.020241501544	0
17	10853	1.021112587377	0
17	10979	1.034945752039	0
17	11000	1.037292310532	0
17	11084	1.040747506369	0
17	11138	1.04180437811	0
17	11168	1.041970039054	0
17	11378	1.068495624209	0
17	11399	1.069156544316	0
17	11462	1.076339009117	0
17	11735	1.114279246948	0
17	11777	1.126851616904	0
17	11840	1.13351004177	0
17	12050	1.154247656401	0
17	12113	1.158513014521	0
17	12176	1.173673703819	0
17	12218	1.180181677243	0
17	12245	1.187061112028	0
17	12260	1.187146392028	0
17	12386	1.197303546121	0
17	12659	1.214569879918	0
17	12701	1.218779812898	0
17	12743	1.234332756502	0
17	12764	1.239632372295	0
17	12974	1.254506669838	0
17	13037	1.255927924952	0
17	13352	1.286476522742	0
17	13394	1.289291762967	0
17	13478	1.294748340115	0
17	13757	1.314448915771	0
17	13869	1.320583306667	0
17	14024	1.33247826918	0
17	14213	1.3480157242	0
17	14345	1.359452630406	0
17	14360	1.359549984499	0
17	14423	1.362735822978	0
17	14465	1.364168353192	0
17	14591	1.379272969204	0
17	14675	1.386022478941	0
17	14948	1.407453475945	0
17	15053	1.414587318773	0
17	15200	1.425070209823	0
17	15515	1.456398504718	0
17	15725	1.477364867453	0
17	15899	1.489961279159	0
17	15914	1.490059423523	0
18	193	0.00016864	0.00016864
18	269	0.009400871315	0.00016864
18	437	0.028190511857	0.00016864
18	479	0.028774358548	0.00016864
18	542	0.031957919956	0.00016864
18	626	0.047646881132	0.00016864
18	752	0.056041209661	0.00016864
18	773	0.056952819922	0.00016864
18	878	0.067398945005	0.00016864
18	983	0.082456787591	0.00016864
18	1004	0.088873879318	0.00016864
18	1130	0.104926274889	0.00016864
18	1151	0.106185018983	0.00016864
18	1298	0.118937296005	0.00016864
18	1382	0.126315568923	0.00016864
18	1403	0.129388372445	0.00016864
18	1445	0.131450405265	0.00016864
18	1634	0.144803307111	0.00016864
18	1781	0.154273273883	0.00016864
18	1844	0.160250734651	0.00016864
18	1886	0.165996058718	0.00016864
18	2012	0.177957136713	0.00016864
18	2117	0.18906311117	0.00016864
18	2306	0.202953538068	0.00016864
18	2768	0.24749850653	0.00016864
18	2789	0.248985629223	0.00016864
18	2921	0.264051982556	0.00016864
18	2936	0.26418862834	0.00016864
18	2999	0.265210077155	0.00016864
18	3083	0.276408220813	0.00016864
18	3209	0.297461433821	0.00016864
18	3251	0.303460902687	0.00016864
18	3272	0.303662803968	0.00016864
18	3293	0.304062566959	0.00016864
18	3335	0.309891350848	0.00016864
18	3755	0.348807052076	0.00016864
18	3986	0.373662875646	0.00016864
18	4028	0.375076182782	0.00016864
18	4196	0.387675520883	0.00016864
18	4217	0.387878645471	0.00016864
18	4238	0.389681167991	0.00016864
18	4490	0.407338578715	0.00016864
18	4532	0.41019878844	0.00016864
18	4616	0.418782718118	0.00016864
18	4700	0.427274926234	0.00016864
18	4931	0.457797742803	0.00016864
18	4973	0.463104967769	0.00016864
18	5070	0.474357787937	0.00016864
18	5099	0.478115176361	0.00016864
18	5406	0.511758880892	0.00016864
18	5483	0.518199927975	0.00016864
18	5651	0.530790363148	0.00016864
18	5960	0.551864839198	0.00016864
18	6065	0.557510944209	0.00016864
18	6092	0.558534150358	0.00016864
18	6149	0.564258765872	0.00016864
18	6170	0.567274425004	0.00016864
18	6233	0.583683400783	0.00016864
18	6338	0.589624135766	0.00016864
18	6464	0.602150211015	0.00016864
18	6611	0.622409299186	0.00016864
18	6695	0.637507533742	0.00016864
18	6758	0.642807562523	0.00016864
18	6863	0.648036262824	0.00016864
18	6905	0.652708988488	0.00016864
18	6989	0.658157559769	0.00016864
18	7037	0.662706678217	0.00016864
18	7052	0.662874355877	0.00016864
18	7178	0.682240128252	0.00016864
18	7283	0.695333111892	0.00016864
18	7451	0.70205771706	0.00016864
18	7535	0.7082836905	0.00016864
18	7808	0.737129133384	0.00016864
18	7850	0.739845814087	0.00016864
18	8039	0.767059296646	0.00016864
18	8417	0.800438639985	0.00016864
18	8438	0.801330182885	0.00016864
18	8459	0.801927992514	0.00016864
18	8493	0.802508716135	0.00016864
18	8522	0.808207691788	0.00016864
18	8606	0.811944389732	0.00016864
18	8627	0.816688552635	0.00016864
18	8690	0.826302948351	0.00016864
18	8711	0.826552831884	0.00016864
18	8900	0.845836433253	0.00016864
18	9152	0.868534833411	0.00016864
18	9236	0.882738667967	0.00016864
18	9278	0.887575051842	0.00016864
18	9362	0.896450071127	0.00016864
18	9509	0.906365114056	0.00016864
18	9698	0.928022750865	0.00016864
18	10034	0.957467553639	0.00016864
18	10076	0.962154318399	0.00016864
18	10139	0.968382611497	0.00016864
18	10181	0.970446191433	0.00016864
18	10370	0.986926953165	0.00016864
18	10572	0.9995450799	0.00016864
18	10643	1.001347822896	0.00016864
18	10769	1.014152066436	0.00016864
18	10790	1.01512374322	0.00016864
18	11021	1.038528662827	0.00016864
18	11160	1.041910209975	0.00016864
18	11231	1.050021620197	0.00016864
18	11357	1.067921516242	0.00016864
18	11420	1.069925938193	0.00016864
18	11483	1.076574015689	0.00016864
18	11546	1.092064132481	0.00016864
18	11615	1.096191431148	0.00016864
18	11693	1.102264224034	0.00016864
18	11714	1.109042244055	0.00016864
18	11882	1.137408645989	0.00016864
18	11924	1.140876179027	0.00016864
18	12155	1.159777196008	0.00016864
18	12496	1.20179579027	0.00016864
18	12617	1.20895624345	0.00016864
18	12680	1.217377606478	0.00016864
18	12861	1.249777236147	0.00016864
18	12896	1.250623031065	0.00016864
18	13029	1.255852707602	0.00016864
18	13058	1.256401781328	0.00016864
18	13184	1.269333259916	0.00016864
18	13226	1.270922591713	0.00016864
18	13247	1.271751214442	0.00016864
18	13268	1.274636341545	0.00016864
18	13289	1.275575087018	0.00016864
18	13373	1.286888874694	0.00016864
18	13457	1.29254782011	0.00016864
18	13688	1.310244018342	0.00016864
18	13730	1.313833631526	0.00016864
18	13814	1.316873347118	0.00016864
18	13961	1.328370760995	0.00016864
18	14192	1.345907907445	0.00016864
18	14402	1.360932035382	0.00016864
18	14486	1.365565935657	0.00016864
18	14570	1.371725128495	0.00016864
18	14717	1.387809306986	0.00016864
18	14801	1.394511625752	0.00016864
18	14843	1.396424586211	0.00016864
18	14906	1.402873671123	0.00016864
18	14969	1.408501923141	0.00016864
18	14990	1.410243874745	0.00016864
18	15095	1.417926408164	0.00016864
18	15221	1.425674831959	0.00016864
18	15290	1.427416819125	0.00016864
18	15494	1.450849218426	0.00016864
18	15641	1.463728838177	0.00016864
18	15683	1.47013857363	0.00016864
18	15809	1.47881827345	0.00016864
18	15962	1.491963494431	0.00016864
19	193	0.00016864	0
19	269	0.009400871315	0
19	437	0.028190511857	0
19	479	0.028774358548	0
19	542	0.031957919956	0
19	626	0.047646881132	0
19	752	0.056041209661	0
19	773	0.056952819922	0
19	878	0.067398945005	0
19	983	0.082456787591	0
19	1004	0.088873879318	0
19	1130	0.104926274889	0
19	1151	0.106185018983	0
19	1298	0.118937296005	0
19	1382	0.126315568923	0
19	1403	0.129388372445	0
19	1445	0.131450405265	0
19	1634	0.144803307111	0
19	1781	0.154273273883	0
19	1844	0.160250734651	0
19	1886	0.165996058718	0
19	2012	0.177957136713	0
19	2117	0.18906311117	0
19	2306	0.202953538068	0
19	2768	0.24749850653	0
19	2789	0.248985629223	0
19	2921	0.264051982556	0
19	2936	0.26418862834	0
19	2999	0.265210077155	0
19	3083	0.276408220813	0
19	3209	0.297461433821	0
19	3251	0.303460902687	0
19	3272	0.303662803968	0
19	3293	0.304062566959	0
19	3335	0.309891350848	0
19	3755	0.348807052076	0
19	3986	0.373662875646	0
19	4028	0.375076182782	0
19	4196	0.387675520883	0
19	4217	0.387878645471	0
19	4238	0.389681167991	0
19	4490	0.407338578715	0
19	4532	0.41019878844	0
19	4616	0.418782718118	0
19	4700	0.427274926234	0
19	4931	0.457797742803	0
19	4973	0.463104967769	0
19	5070	0.474357787937	0
19	5099	0.478115176361	0
19	5406	0.511758880892	0
19	5483	0.518199927975	0
19	5651	0.530790363148	0
19	5960	0.551864839198	0
19	6065	0.557510944209	0
19	6092	0.558534150358	0
19	6149	0.564258765872	0
19	6170	0.567274425004	0
19	6233	0.583683400783	0
19	6338	0.589624135766	0
19	6464	0.602150211015	0
19	6611	0.622409299186	0
19	6695	0.637507533742	0
19	6758	0.642807562523	0
19	6863	0.648036262824	0
19	6905	0.652708988488	0
19	6989	0.658157559769	0
19	7037	0.662706678217	0
19	7052	0.662874355877	0
19	7178	0.682240128252	0
19	7283	0.695333111892	0
19	7451	0.70205771706	0
19	7535	0.7082836905	0
19	7808	0.737129133384	0
19	7850	0.739845814087	0
19	8039	0.767059296646	0
19	8417	0.800438639985	0
19	8438	0.801330182885	0
19	8459	0.801927992514	0
19	8493	0.802508716135	0
19	8522	0.808207691788	0
19	8606	0.811944389732	0
19	8627	0.816688552635	0
19	8690	0.826302948351	0
19	8711	0.826552831884	0
19	8900	0.845836433253	0
19	9152	0.868534833411	0
19	9236	0.882738667967	0
19	9278	0.887575051842	0
19	9362	0.896450071127	0
19	9509	0.906365114056	0
19	9698	0.928022750865	0
19	10034	0.957467553639	0
19	10076	0.962154318399	0
19	10139	0.968382611497	0
19	10181	0.970446191433	0
19	10370	0.986926953165	0
19	10572	0.9995450799	0
19	10643	1.001347822896	0
19	10769	1.014152066436	0
19	10790	1.01512374322	0
19	11021	1.038528662827	0
19	11160	1.041910209975	0
19	11231	1.050021620197	0
19	11357	1.067921516242	0
19	11420	1.069925938193	0
19	11483	1.076574015689	0
19	11546	1.092064132481	0
19	11615	1.096191431148	0
19	11693	1.102264224034	0
19	11714	1.109042244055	0
19	11882	1.137408645989	0
19	11924	1.140876179027	0
19	12155	1.159777196008	0
19	12496	1.20179579027	0
19	12617	1.20895624345	0
19	12680	1.217377606478	0
19	12861	1.249777236147	0
19	12896	1.250623031065	0
19	13029	1.255852707602	0
19	13058	1.256401781328	0
19	13184	1.269333259916	0
19	13226	1.270922591713	0
19	13247	1.271751214442	0
19	13268	1.274636341545	0
19	13289	1.275575087018	0
19	13373	1.286888874694	0
19	13457	1.29254782011	0
19	13688	1.310244018342	0
19	13730	1.313833631526	0
19	13814	1.316873347118	0
19	13961	1.328370760995	0
19	14192	1.345907907445	0
19	14402	1.360932035382	0
19	14486	1.365565935657	0
19	14570	1.371725128495	0
19	14717	1.387809306986	0
19	14801	1.394511625752	0
19	14843	1.396424586211	0
19	14906	1.402873671123	0
19	14969	1.408501923141	0
19	14990	1.410243874745	0
19	15095	1.417926408164	0
19	15221	1.425674831959	0
19	15290	1.427416819125	0
19	15494	1.450849218426	0
19	15641	1.463728838177	0
19	15683	1.47013857363	0
19	15809	1.47881827345	0
19	15962	1.491963494431	0

