version 3
run General-0-20241029-17:51:28-18868
attr configname General
attr datetime 20241029-17:51:28
attr datetimef 20241029-175128
attr experiment General
attr inifile "D:\\jobSimQt\\project/Parameters.ini"
attr iterationvars ""
attr iterationvarsd ""
attr iterationvarsf ""
attr measurement ""
attr network TargetNetwork
attr processid 18868
attr repetition 0
attr replication #0
attr resultdir results
attr runnumber 0
attr seedset 0
config network TargetNetwork
config sim-time-limit 1.5s
config *.udp_cpu.numApps 1
config *.udp_cpu.app[0].typename UdpSourceApp
config *.udp_cpu.app[0].source.packetLength 1200B
config *.udp_cpu.app[0].source.productionInterval exponential(exponential(100us))
config *.udp_cpu.app[0].io.destAddress "\"udp_cpu2\""
config *.udp_cpu.app[0].io.destPort 1000
config *.udp_cpu2.numApps 1
config *.udp_cpu2.app[0].typename UdpSinkApp
config *.udp_cpu2.app[0].io.localPort 1000
config *.udp_switch.ethernet.typename EthernetLayer
config *.udp_switch.eth[*].typename LayeredEthernetInterface
config *.udp_switch.eth[*].bitrate 100Mbps

par TargetNetwork.udp_cpu.ethg$o[0].channel typename "\"ned.DatarateChannel\""
par TargetNetwork.udp_cpu.ethg$o[0].channel disabled false
attr mutable ""
par TargetNetwork.udp_cpu.ethg$o[0].channel delay 0s
attr mutable ""
attr unit s
par TargetNetwork.udp_cpu.ethg$o[0].channel datarate 1e+08bps
attr mutable ""
attr unit bps
par TargetNetwork.udp_cpu.ethg$o[0].channel ber 0
attr mutable ""
par TargetNetwork.udp_cpu.ethg$o[0].channel per 0
attr mutable ""
par TargetNetwork.udp_switch.ethg$o[0].channel typename "\"ned.DatarateChannel\""
par TargetNetwork.udp_switch.ethg$o[0].channel disabled false
attr mutable ""
par TargetNetwork.udp_switch.ethg$o[0].channel delay 0s
attr mutable ""
attr unit s
par TargetNetwork.udp_switch.ethg$o[0].channel datarate 1e+08bps
attr mutable ""
attr unit bps
par TargetNetwork.udp_switch.ethg$o[0].channel ber 0
attr mutable ""
par TargetNetwork.udp_switch.ethg$o[0].channel per 0
attr mutable ""
par TargetNetwork.udp_cpu2.ethg$o[0].channel typename "\"ned.DatarateChannel\""
par TargetNetwork.udp_cpu2.ethg$o[0].channel disabled false
attr mutable ""
par TargetNetwork.udp_cpu2.ethg$o[0].channel delay 0s
attr mutable ""
attr unit s
par TargetNetwork.udp_cpu2.ethg$o[0].channel datarate 1e+08bps
attr mutable ""
attr unit bps
par TargetNetwork.udp_cpu2.ethg$o[0].channel ber 0
attr mutable ""
par TargetNetwork.udp_cpu2.ethg$o[0].channel per 0
attr mutable ""
par TargetNetwork.udp_switch.ethg$o[1].channel typename "\"ned.DatarateChannel\""
par TargetNetwork.udp_switch.ethg$o[1].channel disabled false
attr mutable ""
par TargetNetwork.udp_switch.ethg$o[1].channel delay 0s
attr mutable ""
attr unit s
par TargetNetwork.udp_switch.ethg$o[1].channel datarate 1e+08bps
attr mutable ""
attr unit bps
par TargetNetwork.udp_switch.ethg$o[1].channel ber 0
attr mutable ""
par TargetNetwork.udp_switch.ethg$o[1].channel per 0
attr mutable ""
par TargetNetwork.visualizer.sceneVisualizer typename "\"inet.visualizer.canvas.scene.SceneCanvasVisualizer\""
par TargetNetwork.visualizer.sceneVisualizer visualizationTargetModule "\"^.^\""
par TargetNetwork.visualizer.sceneVisualizer visualizationSubjectModule "\"^.^\""
par TargetNetwork.visualizer.sceneVisualizer tags "\"\""
par TargetNetwork.visualizer.sceneVisualizer physicalEnvironmentModule "\"physicalEnvironment\""
par TargetNetwork.visualizer.sceneVisualizer networkNodeVisualizerModule "\"^.networkNodeVisualizer\""
par TargetNetwork.visualizer.sceneVisualizer axisLength "nan m"
attr mutable ""
attr unit m
par TargetNetwork.visualizer.sceneVisualizer animationSpeed 0
par TargetNetwork.visualizer.sceneVisualizer sceneMinX "nan m"
attr unit m
par TargetNetwork.visualizer.sceneVisualizer sceneMinY "nan m"
attr unit m
par TargetNetwork.visualizer.sceneVisualizer sceneMinZ "nan m"
attr unit m
par TargetNetwork.visualizer.sceneVisualizer sceneMaxX "nan m"
attr unit m
par TargetNetwork.visualizer.sceneVisualizer sceneMaxY "nan m"
attr unit m
par TargetNetwork.visualizer.sceneVisualizer sceneMaxZ "nan m"
attr unit m
par TargetNetwork.visualizer.sceneVisualizer zIndex 0
par TargetNetwork.visualizer.sceneVisualizer viewAngle "\"x right y down z out\""
attr mutable ""
par TargetNetwork.visualizer.sceneVisualizer viewScale "\"1 1\""
attr mutable ""
par TargetNetwork.visualizer.sceneVisualizer viewTranslation "\"0 0\""
attr mutable ""
par TargetNetwork.visualizer.sceneVisualizer descriptionFigure "\"\""
par TargetNetwork.visualizer.physicalEnvironmentVisualizer typename "\"inet.visualizer.canvas.environment.PhysicalEnvironmentCanvasVisualizer\""
par TargetNetwork.visualizer.physicalEnvironmentVisualizer visualizationTargetModule "\"^.^\""
par TargetNetwork.visualizer.physicalEnvironmentVisualizer visualizationSubjectModule "\"^.^\""
par TargetNetwork.visualizer.physicalEnvironmentVisualizer tags "\"\""
par TargetNetwork.visualizer.physicalEnvironmentVisualizer physicalEnvironmentModule "\"physicalEnvironment\""
par TargetNetwork.visualizer.physicalEnvironmentVisualizer displayObjects true
par TargetNetwork.visualizer.physicalEnvironmentVisualizer zIndex 0
par TargetNetwork.visualizer.networkNodeVisualizer typename "\"inet.visualizer.canvas.scene.NetworkNodeCanvasVisualizer\""
par TargetNetwork.visualizer.networkNodeVisualizer visualizationTargetModule "\"^.^\""
par TargetNetwork.visualizer.networkNodeVisualizer visualizationSubjectModule "\"^.^\""
par TargetNetwork.visualizer.networkNodeVisualizer tags "\"\""
par TargetNetwork.visualizer.networkNodeVisualizer nodeFilter "\"*\""
attr mutable ""
par TargetNetwork.visualizer.networkNodeVisualizer annotationSpacing 4
par TargetNetwork.visualizer.networkNodeVisualizer placementPenalty 10
par TargetNetwork.visualizer.networkNodeVisualizer zIndex 0
par TargetNetwork.visualizer.networkConnectionVisualizer typename "\"inet.visualizer.canvas.scene.NetworkConnectionCanvasVisualizer\""
par TargetNetwork.visualizer.networkConnectionVisualizer visualizationTargetModule "\"^.^\""
par TargetNetwork.visualizer.networkConnectionVisualizer visualizationSubjectModule "\"^.^\""
par TargetNetwork.visualizer.networkConnectionVisualizer tags "\"\""
par TargetNetwork.visualizer.networkConnectionVisualizer displayNetworkConnections true
par TargetNetwork.visualizer.networkConnectionVisualizer nodeFilter "\"\""
attr mutable ""
par TargetNetwork.visualizer.networkConnectionVisualizer lineColor "\"black\""
par TargetNetwork.visualizer.networkConnectionVisualizer lineStyle "\"solid\""
par TargetNetwork.visualizer.networkConnectionVisualizer lineWidth 1
par TargetNetwork.visualizer.networkConnectionVisualizer zIndex 0
par TargetNetwork.visualizer.mobilityVisualizer typename "\"inet.visualizer.canvas.mobility.MobilityCanvasVisualizer\""
par TargetNetwork.visualizer.mobilityVisualizer visualizationTargetModule "\"^.^\""
par TargetNetwork.visualizer.mobilityVisualizer visualizationSubjectModule "\"^.^\""
par TargetNetwork.visualizer.mobilityVisualizer tags "\"\""
par TargetNetwork.visualizer.mobilityVisualizer networkNodeVisualizerModule "\"^.networkNodeVisualizer\""
par TargetNetwork.visualizer.mobilityVisualizer displayMobility true
par TargetNetwork.visualizer.mobilityVisualizer animationSpeed 0
par TargetNetwork.visualizer.mobilityVisualizer moduleFilter "\"**.mobility\""
attr mutable ""
par TargetNetwork.visualizer.mobilityVisualizer displayPositions false
par TargetNetwork.visualizer.mobilityVisualizer positionCircleRadius 4
par TargetNetwork.visualizer.mobilityVisualizer positionCircleLineWidth 1
par TargetNetwork.visualizer.mobilityVisualizer positionCircleLineColor "\"dark\""
attr enum light,dark
par TargetNetwork.visualizer.mobilityVisualizer positionCircleFillColor "\"dark\""
attr enum light,dark
par TargetNetwork.visualizer.mobilityVisualizer displayOrientations false
par TargetNetwork.visualizer.mobilityVisualizer orientationPieRadius 32
par TargetNetwork.visualizer.mobilityVisualizer orientationPieSize 0.2
par TargetNetwork.visualizer.mobilityVisualizer orientationPieOpacity 0.25
par TargetNetwork.visualizer.mobilityVisualizer orientationLineColor "\"black\""
par TargetNetwork.visualizer.mobilityVisualizer orientationLineStyle "\"solid\""
par TargetNetwork.visualizer.mobilityVisualizer orientationLineWidth 1
par TargetNetwork.visualizer.mobilityVisualizer orientationFillColor "\"blue\""
par TargetNetwork.visualizer.mobilityVisualizer displayVelocities false
par TargetNetwork.visualizer.mobilityVisualizer velocityArrowScale 1
par TargetNetwork.visualizer.mobilityVisualizer velocityLineColor "\"black\""
par TargetNetwork.visualizer.mobilityVisualizer velocityLineStyle "\"solid\""
par TargetNetwork.visualizer.mobilityVisualizer velocityLineWidth 1
par TargetNetwork.visualizer.mobilityVisualizer displayMovementTrails false
par TargetNetwork.visualizer.mobilityVisualizer movementTrailLineColor "\"dark\""
attr enum light,dark
par TargetNetwork.visualizer.mobilityVisualizer movementTrailLineStyle "\"solid\""
par TargetNetwork.visualizer.mobilityVisualizer movementTrailLineWidth 1
par TargetNetwork.visualizer.mobilityVisualizer trailLength 100
par TargetNetwork.visualizer.mobilityVisualizer zIndex 0
par TargetNetwork.visualizer.statisticVisualizer typename "\"inet.visualizer.canvas.common.StatisticCanvasVisualizer\""
par TargetNetwork.visualizer.statisticVisualizer visualizationTargetModule "\"^.^\""
par TargetNetwork.visualizer.statisticVisualizer visualizationSubjectModule "\"^.^\""
par TargetNetwork.visualizer.statisticVisualizer tags "\"\""
par TargetNetwork.visualizer.statisticVisualizer networkNodeVisualizerModule "\"^.networkNodeVisualizer\""
par TargetNetwork.visualizer.statisticVisualizer displayStatistics true
par TargetNetwork.visualizer.statisticVisualizer signalName "\"\""
par TargetNetwork.visualizer.statisticVisualizer statisticName "\"\""
par TargetNetwork.visualizer.statisticVisualizer statisticUnit "\"\""
par TargetNetwork.visualizer.statisticVisualizer statisticExpression "\"\""
par TargetNetwork.visualizer.statisticVisualizer sourceFilter "\"**\""
attr mutable ""
par TargetNetwork.visualizer.statisticVisualizer format "\"%n: %v %u\""
attr mutable ""
par TargetNetwork.visualizer.statisticVisualizer unit "\"\""
par TargetNetwork.visualizer.statisticVisualizer font "\"<default>\""
par TargetNetwork.visualizer.statisticVisualizer textColor "\"black\""
par TargetNetwork.visualizer.statisticVisualizer backgroundColor "\"white\""
par TargetNetwork.visualizer.statisticVisualizer opacity 1
par TargetNetwork.visualizer.statisticVisualizer placementHint "\"top\""
par TargetNetwork.visualizer.statisticVisualizer placementPriority 0
par TargetNetwork.visualizer.statisticVisualizer zIndex 10
par TargetNetwork.visualizer.statisticVisualizer propertyName "\"\""
par TargetNetwork.visualizer.statisticVisualizer propertyIndex "\"\""
par TargetNetwork.visualizer.infoVisualizer typename "\"inet.visualizer.canvas.common.InfoCanvasVisualizer\""
par TargetNetwork.visualizer.infoVisualizer visualizationTargetModule "\"^.^\""
par TargetNetwork.visualizer.infoVisualizer visualizationSubjectModule "\"^.^\""
par TargetNetwork.visualizer.infoVisualizer tags "\"\""
par TargetNetwork.visualizer.infoVisualizer networkNodeVisualizerModule "\"^.networkNodeVisualizer\""
par TargetNetwork.visualizer.infoVisualizer displayInfos true
par TargetNetwork.visualizer.infoVisualizer modules "\"\""
attr mutable ""
par TargetNetwork.visualizer.infoVisualizer format "\"%t\""
attr mutable ""
par TargetNetwork.visualizer.infoVisualizer font "\"<default>\""
par TargetNetwork.visualizer.infoVisualizer textColor "\"black\""
par TargetNetwork.visualizer.infoVisualizer backgroundColor "\"white\""
par TargetNetwork.visualizer.infoVisualizer opacity 1
par TargetNetwork.visualizer.infoVisualizer placementHint "\"top\""
par TargetNetwork.visualizer.infoVisualizer placementPriority 0
par TargetNetwork.visualizer.infoVisualizer zIndex 10
par TargetNetwork.visualizer.energyStorageVisualizer typename "\"inet.visualizer.canvas.power.EnergyStorageCanvasVisualizer\""
par TargetNetwork.visualizer.energyStorageVisualizer visualizationTargetModule "\"^.^\""
par TargetNetwork.visualizer.energyStorageVisualizer visualizationSubjectModule "\"^.^\""
par TargetNetwork.visualizer.energyStorageVisualizer tags "\"\""
par TargetNetwork.visualizer.energyStorageVisualizer networkNodeVisualizerModule "\"^.networkNodeVisualizer\""
par TargetNetwork.visualizer.energyStorageVisualizer displayEnergyStorages false
par TargetNetwork.visualizer.energyStorageVisualizer energyStorageFilter "\"**\""
par TargetNetwork.visualizer.energyStorageVisualizer color "\"green\""
par TargetNetwork.visualizer.energyStorageVisualizer width 8
par TargetNetwork.visualizer.energyStorageVisualizer height 24
par TargetNetwork.visualizer.energyStorageVisualizer spacing 2
par TargetNetwork.visualizer.energyStorageVisualizer placementHint "\"right\""
par TargetNetwork.visualizer.energyStorageVisualizer placementPriority 0
par TargetNetwork.visualizer.energyStorageVisualizer zIndex 10
par TargetNetwork.visualizer.mediumVisualizer typename "\"inet.visualizer.canvas.physicallayer.MediumCanvasVisualizer\""
par TargetNetwork.visualizer.mediumVisualizer visualizationTargetModule "\"^.^\""
par TargetNetwork.visualizer.mediumVisualizer visualizationSubjectModule "\"^.^\""
par TargetNetwork.visualizer.mediumVisualizer tags "\"\""
par TargetNetwork.visualizer.mediumVisualizer mediumModule "\"radioMedium\""
par TargetNetwork.visualizer.mediumVisualizer networkNodeVisualizerModule "\"^.networkNodeVisualizer\""
par TargetNetwork.visualizer.mediumVisualizer nodeFilter "\"*\""
attr mutable ""
par TargetNetwork.visualizer.mediumVisualizer interfaceFilter "\"*\""
attr mutable ""
par TargetNetwork.visualizer.mediumVisualizer packetFilter "(omnetpp::cValueHolder)holder: \"*\""
attr mutable ""
par TargetNetwork.visualizer.mediumVisualizer displaySignals false
par TargetNetwork.visualizer.mediumVisualizer signalColor "\"dark\""
attr enum light,dark
par TargetNetwork.visualizer.mediumVisualizer signalPropagationAnimationSpeed "nan "
attr mutable ""
par TargetNetwork.visualizer.mediumVisualizer signalPropagationAnimationTime 1s
attr unit s
par TargetNetwork.visualizer.mediumVisualizer signalPropagationAdditionalTime 0s
attr unit s
par TargetNetwork.visualizer.mediumVisualizer signalTransmissionAnimationSpeed "nan "
attr mutable ""
par TargetNetwork.visualizer.mediumVisualizer signalTransmissionAnimationTime 1s
attr unit s
par TargetNetwork.visualizer.mediumVisualizer signalAnimationSpeedChangeTimeMode "\"realTime\""
attr enum realTime,animationTime,simulationTime
par TargetNetwork.visualizer.mediumVisualizer signalAnimationSpeedChangeTime 1s
attr unit s
par TargetNetwork.visualizer.mediumVisualizer displaySignalDepartures false
par TargetNetwork.visualizer.mediumVisualizer signalDepartureImage "\"misc/signal_departure.png\""
par TargetNetwork.visualizer.mediumVisualizer signalDeparturePlacementHint "\"topCenter\""
par TargetNetwork.visualizer.mediumVisualizer signalDeparturePlacementPriority 1
par TargetNetwork.visualizer.mediumVisualizer displaySignalArrivals false
par TargetNetwork.visualizer.mediumVisualizer signalArrivalImage "\"misc/signal_arrival.png\""
par TargetNetwork.visualizer.mediumVisualizer signalArrivalPlacementHint "\"topCenter\""
par TargetNetwork.visualizer.mediumVisualizer signalArrivalPlacementPriority -1
par TargetNetwork.visualizer.mediumVisualizer displayCommunicationRanges false
par TargetNetwork.visualizer.mediumVisualizer communicationRangeLineColor "\"blue\""
par TargetNetwork.visualizer.mediumVisualizer communicationRangeLineStyle "\"solid\""
par TargetNetwork.visualizer.mediumVisualizer communicationRangeLineWidth 1
par TargetNetwork.visualizer.mediumVisualizer displayInterferenceRanges false
par TargetNetwork.visualizer.mediumVisualizer interferenceRangeLineColor "\"gray\""
par TargetNetwork.visualizer.mediumVisualizer interferenceRangeLineStyle "\"solid\""
par TargetNetwork.visualizer.mediumVisualizer interferenceRangeLineWidth 1
par TargetNetwork.visualizer.mediumVisualizer autoPowerAxis true
par TargetNetwork.visualizer.mediumVisualizer signalMinPower "inf dBmW"
attr unit dBmW
par TargetNetwork.visualizer.mediumVisualizer signalMaxPower 0dBmW
attr unit dBmW
par TargetNetwork.visualizer.mediumVisualizer signalMinPowerDensity "inf dBmWpMHz"
attr unit dBmWpMHz
par TargetNetwork.visualizer.mediumVisualizer signalMaxPowerDensity "-inf dBmWpMHz"
attr unit dBmWpMHz
par TargetNetwork.visualizer.mediumVisualizer autoTimeAxis true
par TargetNetwork.visualizer.mediumVisualizer signalMinTime 0s
attr unit s
par TargetNetwork.visualizer.mediumVisualizer signalMaxTime 0s
attr unit s
par TargetNetwork.visualizer.mediumVisualizer autoFrequencyAxis true
par TargetNetwork.visualizer.mediumVisualizer signalMinFrequency "inf Hz"
attr unit Hz
par TargetNetwork.visualizer.mediumVisualizer signalMaxFrequency "-inf Hz"
attr unit Hz
par TargetNetwork.visualizer.mediumVisualizer displayMainPowerDensityMap false
par TargetNetwork.visualizer.mediumVisualizer mainPowerDensityMapPixmapDensity 1
par TargetNetwork.visualizer.mediumVisualizer mainPowerDensityMapMinX 0
par TargetNetwork.visualizer.mediumVisualizer mainPowerDensityMapMaxX "nan "
par TargetNetwork.visualizer.mediumVisualizer mainPowerDensityMapMinY 0
par TargetNetwork.visualizer.mediumVisualizer mainPowerDensityMapMaxY "nan "
par TargetNetwork.visualizer.mediumVisualizer mainPowerDensityMapZ 0
par TargetNetwork.visualizer.mediumVisualizer mainPowerDensityMapFigureXTickCount 3
par TargetNetwork.visualizer.mediumVisualizer mainPowerDensityMapFigureYTickCount 3
par TargetNetwork.visualizer.mediumVisualizer displayPowerDensityMaps false
par TargetNetwork.visualizer.mediumVisualizer powerDensityMapMode "\"auto\""
attr enum total,signal,auto
par TargetNetwork.visualizer.mediumVisualizer powerDensityMapPixelMode "\"mean\""
attr enum sample,partition,mean
par TargetNetwork.visualizer.mediumVisualizer powerDensityMapApproximationSize 10
par TargetNetwork.visualizer.mediumVisualizer powerDensityMapCenterFrequency "nan Hz"
attr mutable ""
attr unit Hz
par TargetNetwork.visualizer.mediumVisualizer powerDensityMapBandwidth 0Hz
attr mutable ""
attr unit Hz
par TargetNetwork.visualizer.mediumVisualizer powerDensityMapFigureWidth 200
par TargetNetwork.visualizer.mediumVisualizer powerDensityMapFigureHeight 120
par TargetNetwork.visualizer.mediumVisualizer powerDensityMapPixmapWidth 200
par TargetNetwork.visualizer.mediumVisualizer powerDensityMapPixmapHeight 120
par TargetNetwork.visualizer.mediumVisualizer powerDensityMapZ 0
par TargetNetwork.visualizer.mediumVisualizer powerDensityMapFigureXTickCount 3
par TargetNetwork.visualizer.mediumVisualizer powerDensityMapFigureYTickCount 3
par TargetNetwork.visualizer.mediumVisualizer displaySpectrums false
par TargetNetwork.visualizer.mediumVisualizer spectrumMode "\"auto\""
attr enum total,signal,auto
par TargetNetwork.visualizer.mediumVisualizer spectrumFigureWidth 200
par TargetNetwork.visualizer.mediumVisualizer spectrumFigureHeight 120
par TargetNetwork.visualizer.mediumVisualizer spectrumFigureXTickCount 3
par TargetNetwork.visualizer.mediumVisualizer spectrumFigureYTickCount 5
par TargetNetwork.visualizer.mediumVisualizer spectrumFigureInterpolationSize 5
par TargetNetwork.visualizer.mediumVisualizer spectrumPlacementHint "\"bottomCenter\""
par TargetNetwork.visualizer.mediumVisualizer spectrumPlacementPriority -1
par TargetNetwork.visualizer.mediumVisualizer displaySpectrograms false
par TargetNetwork.visualizer.mediumVisualizer spectrogramMode "\"auto\""
attr enum total,signal,auto
par TargetNetwork.visualizer.mediumVisualizer spectrogramPixelMode "\"mean\""
attr enum sample,partition,mean
par TargetNetwork.visualizer.mediumVisualizer spectrogramFigureWidth 200
par TargetNetwork.visualizer.mediumVisualizer spectrogramFigureHeight 120
par TargetNetwork.visualizer.mediumVisualizer spectrogramPixmapWidth 200
par TargetNetwork.visualizer.mediumVisualizer spectrogramPixmapHeight 120
par TargetNetwork.visualizer.mediumVisualizer spectrogramFigureXTickCount 3
par TargetNetwork.visualizer.mediumVisualizer spectrogramFigureYTickCount 5
par TargetNetwork.visualizer.mediumVisualizer spectrogramPlacementHint "\"bottomCenter\""
par TargetNetwork.visualizer.mediumVisualizer spectrogramPlacementPriority -1
par TargetNetwork.visualizer.mediumVisualizer zIndex 0
par TargetNetwork.visualizer.mediumVisualizer signalShape "\"ring\""
attr enum ring,sphere
par TargetNetwork.visualizer.mediumVisualizer signalOpacity 0.5
par TargetNetwork.visualizer.mediumVisualizer signalRingCount 20
par TargetNetwork.visualizer.mediumVisualizer signalRingSize 50m
attr unit m
par TargetNetwork.visualizer.mediumVisualizer signalFadingDistance 50m
attr unit m
par TargetNetwork.visualizer.mediumVisualizer signalFadingFactor 1.2
par TargetNetwork.visualizer.mediumVisualizer signalWaveCount 20
par TargetNetwork.visualizer.mediumVisualizer signalWaveLength 50m
attr unit m
par TargetNetwork.visualizer.mediumVisualizer signalWaveWidth 10m
attr unit m
par TargetNetwork.visualizer.mediumVisualizer signalWaveFadingAnimationSpeedFactor 1
par TargetNetwork.visualizer.mediumVisualizer displayCommunicationHeat false
par TargetNetwork.visualizer.obstacleLossVisualizer typename "\"inet.visualizer.canvas.physicallayer.TracingObstacleLossCanvasVisualizer\""
par TargetNetwork.visualizer.obstacleLossVisualizer visualizationTargetModule "\"^.^\""
par TargetNetwork.visualizer.obstacleLossVisualizer visualizationSubjectModule "\"^.^\""
par TargetNetwork.visualizer.obstacleLossVisualizer tags "\"\""
par TargetNetwork.visualizer.obstacleLossVisualizer displayIntersections false
par TargetNetwork.visualizer.obstacleLossVisualizer intersectionLineColor "\"red\""
par TargetNetwork.visualizer.obstacleLossVisualizer intersectionLineStyle "\"solid\""
par TargetNetwork.visualizer.obstacleLossVisualizer intersectionLineWidth 1
par TargetNetwork.visualizer.obstacleLossVisualizer displayFaceNormalVectors false
par TargetNetwork.visualizer.obstacleLossVisualizer faceNormalLineColor "\"grey\""
par TargetNetwork.visualizer.obstacleLossVisualizer faceNormalLineStyle "\"solid\""
par TargetNetwork.visualizer.obstacleLossVisualizer faceNormalLineWidth 1
par TargetNetwork.visualizer.obstacleLossVisualizer fadeOutMode "\"realTime\""
attr enum realTime,animationTime,simulationTime
par TargetNetwork.visualizer.obstacleLossVisualizer fadeOutTime 1s
attr unit s
par TargetNetwork.visualizer.obstacleLossVisualizer fadeOutAnimationSpeed 0
par TargetNetwork.visualizer.obstacleLossVisualizer zIndex 0
par TargetNetwork.visualizer.packetDropVisualizer typename "\"inet.visualizer.canvas.common.PacketDropCanvasVisualizer\""
par TargetNetwork.visualizer.packetDropVisualizer visualizationTargetModule "\"^.^\""
par TargetNetwork.visualizer.packetDropVisualizer visualizationSubjectModule "\"^.^\""
par TargetNetwork.visualizer.packetDropVisualizer tags "\"\""
par TargetNetwork.visualizer.packetDropVisualizer displayPacketDrops false
par TargetNetwork.visualizer.packetDropVisualizer nodeFilter "\"*\""
attr mutable ""
par TargetNetwork.visualizer.packetDropVisualizer interfaceFilter "\"*\""
attr mutable ""
par TargetNetwork.visualizer.packetDropVisualizer packetFilter "(omnetpp::cValueHolder)holder: \"*\""
attr mutable ""
par TargetNetwork.visualizer.packetDropVisualizer detailsFilter "\"*\""
attr mutable ""
par TargetNetwork.visualizer.packetDropVisualizer icon "\"msg/packet_s\""
par TargetNetwork.visualizer.packetDropVisualizer iconTintAmount 1
par TargetNetwork.visualizer.packetDropVisualizer iconTintColor "\"dark\""
par TargetNetwork.visualizer.packetDropVisualizer labelFormat "\"%n\""
attr mutable ""
par TargetNetwork.visualizer.packetDropVisualizer labelFont "\"<default>\""
par TargetNetwork.visualizer.packetDropVisualizer labelColor "\"black\""
par TargetNetwork.visualizer.packetDropVisualizer fadeOutMode "\"realTime\""
attr enum realTime,animationTime,simulationTime
par TargetNetwork.visualizer.packetDropVisualizer fadeOutTime 1s
attr unit s
par TargetNetwork.visualizer.packetDropVisualizer fadeOutAnimationSpeed 0
par TargetNetwork.visualizer.packetDropVisualizer zIndex 10
par TargetNetwork.visualizer.packetDropVisualizer dx 32
par TargetNetwork.visualizer.packetDropVisualizer dy 64
par TargetNetwork.visualizer.packetFlowVisualizer typename "\"inet.visualizer.canvas.flow.PacketFlowCanvasVisualizer\""
par TargetNetwork.visualizer.packetFlowVisualizer visualizationTargetModule "\"^.^\""
par TargetNetwork.visualizer.packetFlowVisualizer visualizationSubjectModule "\"^.^\""
par TargetNetwork.visualizer.packetFlowVisualizer tags "\"\""
par TargetNetwork.visualizer.packetFlowVisualizer displayRoutes false
par TargetNetwork.visualizer.packetFlowVisualizer startPathSignal "\"packetFlowStarted\""
par TargetNetwork.visualizer.packetFlowVisualizer extendPathSignal "\"packetReceivedFromLower\""
par TargetNetwork.visualizer.packetFlowVisualizer endPathSignal "\"packetFlowEnded\""
par TargetNetwork.visualizer.packetFlowVisualizer nodeFilter "\"*\""
attr mutable ""
par TargetNetwork.visualizer.packetFlowVisualizer packetFilter "(omnetpp::cValueHolder)holder: \"*\""
attr mutable ""
par TargetNetwork.visualizer.packetFlowVisualizer lineColor "\"dark\""
attr enum light,dark
par TargetNetwork.visualizer.packetFlowVisualizer lineStyle "\"dashed\""
par TargetNetwork.visualizer.packetFlowVisualizer lineWidth 3
par TargetNetwork.visualizer.packetFlowVisualizer lineSmooth false
par TargetNetwork.visualizer.packetFlowVisualizer lineShift 16
par TargetNetwork.visualizer.packetFlowVisualizer lineShiftMode "\"normal\""
par TargetNetwork.visualizer.packetFlowVisualizer lineContactSpacing 3
par TargetNetwork.visualizer.packetFlowVisualizer lineContactMode "\"rectangular\""
attr enum circular,rectangular
par TargetNetwork.visualizer.packetFlowVisualizer labelFormat "\"%L %p pk (%l)\""
par TargetNetwork.visualizer.packetFlowVisualizer labelFont "\"<default>, 8px\""
par TargetNetwork.visualizer.packetFlowVisualizer labelColor "\"\""
par TargetNetwork.visualizer.packetFlowVisualizer fadeOutMode "\"realTime\""
attr enum realTime,animationTime,simulationTime
par TargetNetwork.visualizer.packetFlowVisualizer fadeOutTime 0s
attr unit s
par TargetNetwork.visualizer.packetFlowVisualizer fadeOutAnimationSpeed 0
par TargetNetwork.visualizer.packetFlowVisualizer zIndex 4
par TargetNetwork.visualizer.queueVisualizer typename "\"inet.visualizer.canvas.common.QueueCanvasVisualizer\""
par TargetNetwork.visualizer.queueVisualizer visualizationTargetModule "\"^.^\""
par TargetNetwork.visualizer.queueVisualizer visualizationSubjectModule "\"^.^\""
par TargetNetwork.visualizer.queueVisualizer tags "\"\""
par TargetNetwork.visualizer.queueVisualizer networkNodeVisualizerModule "\"^.networkNodeVisualizer\""
par TargetNetwork.visualizer.queueVisualizer displayQueues false
par TargetNetwork.visualizer.queueVisualizer queueFilter "\"**\""
par TargetNetwork.visualizer.queueVisualizer color "\"blue\""
par TargetNetwork.visualizer.queueVisualizer width 8
par TargetNetwork.visualizer.queueVisualizer height 24
par TargetNetwork.visualizer.queueVisualizer spacing 2
par TargetNetwork.visualizer.queueVisualizer placementHint "\"right\""
par TargetNetwork.visualizer.queueVisualizer placementPriority 0
par TargetNetwork.visualizer.queueVisualizer zIndex 10
par TargetNetwork.visualizer.gateScheduleVisualizer typename "\"inet.visualizer.canvas.common.GateScheduleCanvasVisualizer\""
par TargetNetwork.visualizer.gateScheduleVisualizer visualizationTargetModule "\"^.^\""
par TargetNetwork.visualizer.gateScheduleVisualizer visualizationSubjectModule "\"^.^\""
par TargetNetwork.visualizer.gateScheduleVisualizer tags "\"\""
par TargetNetwork.visualizer.gateScheduleVisualizer networkNodeVisualizerModule "\"^.networkNodeVisualizer\""
par TargetNetwork.visualizer.gateScheduleVisualizer displayGateSchedules false
par TargetNetwork.visualizer.gateScheduleVisualizer labelFormat "\"%i %D\""
par TargetNetwork.visualizer.gateScheduleVisualizer gateFilter "\"**\""
par TargetNetwork.visualizer.gateScheduleVisualizer width 100
par TargetNetwork.visualizer.gateScheduleVisualizer height 8
par TargetNetwork.visualizer.gateScheduleVisualizer spacing 2
par TargetNetwork.visualizer.gateScheduleVisualizer placementHint "\"right\""
par TargetNetwork.visualizer.gateScheduleVisualizer placementPriority 0
par TargetNetwork.visualizer.gateScheduleVisualizer displayDuration 0s
attr mutable ""
attr unit s
par TargetNetwork.visualizer.gateScheduleVisualizer currentTimePosition 50
par TargetNetwork.visualizer.gateScheduleVisualizer zIndex 10
par TargetNetwork.visualizer.radioVisualizer typename "\"inet.visualizer.canvas.physicallayer.RadioCanvasVisualizer\""
par TargetNetwork.visualizer.radioVisualizer visualizationTargetModule "\"^.^\""
par TargetNetwork.visualizer.radioVisualizer visualizationSubjectModule "\"^.^\""
par TargetNetwork.visualizer.radioVisualizer tags "\"\""
par TargetNetwork.visualizer.radioVisualizer networkNodeVisualizerModule "\"^.networkNodeVisualizer\""
par TargetNetwork.visualizer.radioVisualizer displayRadios false
par TargetNetwork.visualizer.radioVisualizer displayRadioMode true
par TargetNetwork.visualizer.radioVisualizer displayReceptionState true
par TargetNetwork.visualizer.radioVisualizer displayTransmissionState true
par TargetNetwork.visualizer.radioVisualizer displayAntennaLobes false
par TargetNetwork.visualizer.radioVisualizer radioFilter "\"**\""
attr mutable ""
par TargetNetwork.visualizer.radioVisualizer radioModeImages "\"block/process_vs block/timer_vs block/wrx_vs block/wtx_vs block/wrxtx_vs block/cogwheel_vs\""
par TargetNetwork.visualizer.radioVisualizer receptionStateImages "\"- - misc/receiving misc/receiving\""
par TargetNetwork.visualizer.radioVisualizer transmissionStateImages "\"- - misc/transmitting\""
par TargetNetwork.visualizer.radioVisualizer width 16
par TargetNetwork.visualizer.radioVisualizer height 16
par TargetNetwork.visualizer.radioVisualizer placementHint "\"bottomRight\""
par TargetNetwork.visualizer.radioVisualizer placementPriority 0
par TargetNetwork.visualizer.radioVisualizer antennaLobeNormalize false
par TargetNetwork.visualizer.radioVisualizer antennaLobeRelativeLabels false
par TargetNetwork.visualizer.radioVisualizer antennaLobePlaneGlobal true
par TargetNetwork.visualizer.radioVisualizer antennaLobePlane "\"view\""
attr enum view,xy,xz,yz
par TargetNetwork.visualizer.radioVisualizer antennaLobeMode "\"logarithmic\""
attr enum logarithmic,linear
par TargetNetwork.visualizer.radioVisualizer antennaLobeLogarithmicBase 10
par TargetNetwork.visualizer.radioVisualizer antennaLobeLogarithmicScale 100
par TargetNetwork.visualizer.radioVisualizer antennaLobeRadius 100
par TargetNetwork.visualizer.radioVisualizer antennaLobeStep 10deg
attr unit deg
par TargetNetwork.visualizer.radioVisualizer antennaLobeOpacity 0.25
par TargetNetwork.visualizer.radioVisualizer antennaLobeLineSmooth true
par TargetNetwork.visualizer.radioVisualizer antennaLobeLineColor "\"black\""
par TargetNetwork.visualizer.radioVisualizer antennaLobeLineStyle "\"solid\""
par TargetNetwork.visualizer.radioVisualizer antennaLobeLineWidth 1
par TargetNetwork.visualizer.radioVisualizer antennaLobeFillColor "\"white\""
par TargetNetwork.visualizer.radioVisualizer zIndex 10
par TargetNetwork.visualizer.physicalLinkVisualizer typename "\"inet.visualizer.canvas.physicallayer.PhysicalLinkCanvasVisualizer\""
par TargetNetwork.visualizer.physicalLinkVisualizer visualizationTargetModule "\"^.^\""
par TargetNetwork.visualizer.physicalLinkVisualizer visualizationSubjectModule "\"^.^\""
par TargetNetwork.visualizer.physicalLinkVisualizer tags "\"\""
par TargetNetwork.visualizer.physicalLinkVisualizer displayLinks false
par TargetNetwork.visualizer.physicalLinkVisualizer activityLevel "\"service\""
attr enum service,peer,protocol
par TargetNetwork.visualizer.physicalLinkVisualizer nodeFilter "\"*\""
attr mutable ""
par TargetNetwork.visualizer.physicalLinkVisualizer interfaceFilter "\"*\""
attr mutable ""
par TargetNetwork.visualizer.physicalLinkVisualizer packetFilter "(omnetpp::cValueHolder)holder: \"*\""
attr mutable ""
par TargetNetwork.visualizer.physicalLinkVisualizer lineColor "\"olive\""
par TargetNetwork.visualizer.physicalLinkVisualizer lineStyle "\"dotted\""
par TargetNetwork.visualizer.physicalLinkVisualizer lineWidth 3
par TargetNetwork.visualizer.physicalLinkVisualizer lineShift 16
par TargetNetwork.visualizer.physicalLinkVisualizer lineShiftMode "\"normal\""
par TargetNetwork.visualizer.physicalLinkVisualizer lineContactSpacing 3
par TargetNetwork.visualizer.physicalLinkVisualizer lineContactMode "\"rectangular\""
attr enum circular,rectangular
par TargetNetwork.visualizer.physicalLinkVisualizer labelFormat "\"%n\""
par TargetNetwork.visualizer.physicalLinkVisualizer labelFont "\"<default>, 8px\""
par TargetNetwork.visualizer.physicalLinkVisualizer labelColor "\"olive\""
par TargetNetwork.visualizer.physicalLinkVisualizer fadeOutMode "\"realTime\""
attr enum realTime,animationTime,simulationTime
par TargetNetwork.visualizer.physicalLinkVisualizer fadeOutTime 1s
attr unit s
par TargetNetwork.visualizer.physicalLinkVisualizer fadeOutAnimationSpeed 0
par TargetNetwork.visualizer.physicalLinkVisualizer holdAnimationTime 0s
attr unit s
par TargetNetwork.visualizer.physicalLinkVisualizer zIndex 1
par TargetNetwork.visualizer.interfaceTableVisualizer typename "\"inet.visualizer.canvas.linklayer.InterfaceTableCanvasVisualizer\""
par TargetNetwork.visualizer.interfaceTableVisualizer visualizationTargetModule "\"^.^\""
par TargetNetwork.visualizer.interfaceTableVisualizer visualizationSubjectModule "\"^.^\""
par TargetNetwork.visualizer.interfaceTableVisualizer tags "\"\""
par TargetNetwork.visualizer.interfaceTableVisualizer networkNodeVisualizerModule "\"^.networkNodeVisualizer\""
par TargetNetwork.visualizer.interfaceTableVisualizer displayInterfaceTables false
par TargetNetwork.visualizer.interfaceTableVisualizer displayWiredInterfacesAtConnections true
par TargetNetwork.visualizer.interfaceTableVisualizer displayBackground false
par TargetNetwork.visualizer.interfaceTableVisualizer nodeFilter "\"*\""
attr mutable ""
par TargetNetwork.visualizer.interfaceTableVisualizer interfaceFilter "\"not(lo*)\""
attr mutable ""
par TargetNetwork.visualizer.interfaceTableVisualizer format "\"%N %\\\\%a%/%l\""
attr mutable ""
par TargetNetwork.visualizer.interfaceTableVisualizer placementHint "\"top\""
par TargetNetwork.visualizer.interfaceTableVisualizer placementPriority 0
par TargetNetwork.visualizer.interfaceTableVisualizer font "\"<default>\""
par TargetNetwork.visualizer.interfaceTableVisualizer textColor "\"#005030\""
par TargetNetwork.visualizer.interfaceTableVisualizer backgroundColor "\"white\""
par TargetNetwork.visualizer.interfaceTableVisualizer opacity 1
par TargetNetwork.visualizer.interfaceTableVisualizer zIndex 10
par TargetNetwork.visualizer.dataLinkVisualizer typename "\"inet.visualizer.canvas.linklayer.DataLinkCanvasVisualizer\""
par TargetNetwork.visualizer.dataLinkVisualizer visualizationTargetModule "\"^.^\""
par TargetNetwork.visualizer.dataLinkVisualizer visualizationSubjectModule "\"^.^\""
par TargetNetwork.visualizer.dataLinkVisualizer tags "\"\""
par TargetNetwork.visualizer.dataLinkVisualizer displayLinks false
par TargetNetwork.visualizer.dataLinkVisualizer activityLevel "\"service\""
attr enum service,peer,protocol
par TargetNetwork.visualizer.dataLinkVisualizer nodeFilter "\"*\""
attr mutable ""
par TargetNetwork.visualizer.dataLinkVisualizer interfaceFilter "\"*\""
attr mutable ""
par TargetNetwork.visualizer.dataLinkVisualizer packetFilter "(omnetpp::cValueHolder)holder: \"*\""
attr mutable ""
par TargetNetwork.visualizer.dataLinkVisualizer lineColor "\"darkcyan\""
par TargetNetwork.visualizer.dataLinkVisualizer lineStyle "\"solid\""
par TargetNetwork.visualizer.dataLinkVisualizer lineWidth 3
par TargetNetwork.visualizer.dataLinkVisualizer lineShift 16
par TargetNetwork.visualizer.dataLinkVisualizer lineShiftMode "\"normal\""
par TargetNetwork.visualizer.dataLinkVisualizer lineContactSpacing 3
par TargetNetwork.visualizer.dataLinkVisualizer lineContactMode "\"rectangular\""
attr enum circular,rectangular
par TargetNetwork.visualizer.dataLinkVisualizer labelFormat "\"%n\""
par TargetNetwork.visualizer.dataLinkVisualizer labelFont "\"<default>, 8px\""
par TargetNetwork.visualizer.dataLinkVisualizer labelColor "\"darkcyan\""
par TargetNetwork.visualizer.dataLinkVisualizer fadeOutMode "\"realTime\""
attr enum realTime,animationTime,simulationTime
par TargetNetwork.visualizer.dataLinkVisualizer fadeOutTime 1s
attr unit s
par TargetNetwork.visualizer.dataLinkVisualizer fadeOutAnimationSpeed 0
par TargetNetwork.visualizer.dataLinkVisualizer holdAnimationTime 0s
attr unit s
par TargetNetwork.visualizer.dataLinkVisualizer zIndex 2
par TargetNetwork.visualizer.linkBreakVisualizer typename "\"inet.visualizer.canvas.linklayer.LinkBreakCanvasVisualizer\""
par TargetNetwork.visualizer.linkBreakVisualizer visualizationTargetModule "\"^.^\""
par TargetNetwork.visualizer.linkBreakVisualizer visualizationSubjectModule "\"^.^\""
par TargetNetwork.visualizer.linkBreakVisualizer tags "\"\""
par TargetNetwork.visualizer.linkBreakVisualizer displayLinkBreaks false
par TargetNetwork.visualizer.linkBreakVisualizer nodeFilter "\"*\""
attr mutable ""
par TargetNetwork.visualizer.linkBreakVisualizer interfaceFilter "\"*\""
attr mutable ""
par TargetNetwork.visualizer.linkBreakVisualizer packetFilter "(omnetpp::cValueHolder)holder: \"*\""
attr mutable ""
par TargetNetwork.visualizer.linkBreakVisualizer icon "\"status/stop\""
par TargetNetwork.visualizer.linkBreakVisualizer iconTintAmount 0
par TargetNetwork.visualizer.linkBreakVisualizer iconTintColor "\"\""
par TargetNetwork.visualizer.linkBreakVisualizer fadeOutMode "\"realTime\""
attr enum realTime,animationTime,simulationTime
par TargetNetwork.visualizer.linkBreakVisualizer fadeOutTime 1s
attr unit s
par TargetNetwork.visualizer.linkBreakVisualizer fadeOutAnimationSpeed 0
par TargetNetwork.visualizer.linkBreakVisualizer zIndex 2
par TargetNetwork.visualizer.ieee80211Visualizer typename "\"inet.visualizer.canvas.linklayer.Ieee80211CanvasVisualizer\""
par TargetNetwork.visualizer.ieee80211Visualizer visualizationTargetModule "\"^.^\""
par TargetNetwork.visualizer.ieee80211Visualizer visualizationSubjectModule "\"^.^\""
par TargetNetwork.visualizer.ieee80211Visualizer tags "\"\""
par TargetNetwork.visualizer.ieee80211Visualizer networkNodeVisualizerModule "\"^.networkNodeVisualizer\""
par TargetNetwork.visualizer.ieee80211Visualizer displayAssociations false
par TargetNetwork.visualizer.ieee80211Visualizer nodeFilter "\"*\""
attr mutable ""
par TargetNetwork.visualizer.ieee80211Visualizer interfaceFilter "\"*\""
attr mutable ""
par TargetNetwork.visualizer.ieee80211Visualizer minPower -85dBm
attr unit dBm
par TargetNetwork.visualizer.ieee80211Visualizer maxPower -50dBm
attr unit dBm
par TargetNetwork.visualizer.ieee80211Visualizer icons "\"misc/signal_power_0 misc/signal_power_1 misc/signal_power_2 misc/signal_power_3\""
par TargetNetwork.visualizer.ieee80211Visualizer iconColor "\"dark\""
attr enum light,dark
par TargetNetwork.visualizer.ieee80211Visualizer labelFont "\"<default>\""
par TargetNetwork.visualizer.ieee80211Visualizer labelColor "\"black\""
par TargetNetwork.visualizer.ieee80211Visualizer placementHint "\"top\""
par TargetNetwork.visualizer.ieee80211Visualizer placementPriority 0
par TargetNetwork.visualizer.ieee80211Visualizer zIndex 2
par TargetNetwork.visualizer.networkRouteVisualizer typename "\"inet.visualizer.canvas.networklayer.NetworkRouteCanvasVisualizer\""
par TargetNetwork.visualizer.networkRouteVisualizer visualizationTargetModule "\"^.^\""
par TargetNetwork.visualizer.networkRouteVisualizer visualizationSubjectModule "\"^.^\""
par TargetNetwork.visualizer.networkRouteVisualizer tags "\"\""
par TargetNetwork.visualizer.networkRouteVisualizer displayRoutes false
par TargetNetwork.visualizer.networkRouteVisualizer startPathSignal "\"packetReceivedFromUpper\""
par TargetNetwork.visualizer.networkRouteVisualizer extendPathSignal "\"packetReceivedFromLower\""
par TargetNetwork.visualizer.networkRouteVisualizer endPathSignal "\"packetSentToUpper\""
par TargetNetwork.visualizer.networkRouteVisualizer nodeFilter "\"*\""
attr mutable ""
par TargetNetwork.visualizer.networkRouteVisualizer packetFilter "(omnetpp::cValueHolder)holder: \"*\""
attr mutable ""
par TargetNetwork.visualizer.networkRouteVisualizer lineColor "\"dark\""
attr enum light,dark
par TargetNetwork.visualizer.networkRouteVisualizer lineStyle "\"solid\""
par TargetNetwork.visualizer.networkRouteVisualizer lineWidth 3
par TargetNetwork.visualizer.networkRouteVisualizer lineSmooth false
par TargetNetwork.visualizer.networkRouteVisualizer lineShift 16
par TargetNetwork.visualizer.networkRouteVisualizer lineShiftMode "\"normal\""
par TargetNetwork.visualizer.networkRouteVisualizer lineContactSpacing 3
par TargetNetwork.visualizer.networkRouteVisualizer lineContactMode "\"rectangular\""
attr enum circular,rectangular
par TargetNetwork.visualizer.networkRouteVisualizer labelFormat "\"%n\""
par TargetNetwork.visualizer.networkRouteVisualizer labelFont "\"<default>, 8px\""
par TargetNetwork.visualizer.networkRouteVisualizer labelColor "\"\""
par TargetNetwork.visualizer.networkRouteVisualizer fadeOutMode "\"realTime\""
attr enum realTime,animationTime,simulationTime
par TargetNetwork.visualizer.networkRouteVisualizer fadeOutTime 1s
attr unit s
par TargetNetwork.visualizer.networkRouteVisualizer fadeOutAnimationSpeed 0
par TargetNetwork.visualizer.networkRouteVisualizer zIndex 3
par TargetNetwork.visualizer.routingTableVisualizer typename "\"inet.visualizer.canvas.networklayer.RoutingTableCanvasVisualizer\""
par TargetNetwork.visualizer.routingTableVisualizer visualizationTargetModule "\"^.^\""
par TargetNetwork.visualizer.routingTableVisualizer visualizationSubjectModule "\"^.^\""
par TargetNetwork.visualizer.routingTableVisualizer tags "\"\""
par TargetNetwork.visualizer.routingTableVisualizer displayRoutingTables false
par TargetNetwork.visualizer.routingTableVisualizer displayRoutesIndividually true
par TargetNetwork.visualizer.routingTableVisualizer displayLabels true
par TargetNetwork.visualizer.routingTableVisualizer destinationFilter "\"*\""
attr mutable ""
par TargetNetwork.visualizer.routingTableVisualizer nodeFilter "\"*\""
attr mutable ""
par TargetNetwork.visualizer.routingTableVisualizer lineColor "\"black\""
par TargetNetwork.visualizer.routingTableVisualizer lineStyle "\"solid\""
par TargetNetwork.visualizer.routingTableVisualizer lineWidth 2
par TargetNetwork.visualizer.routingTableVisualizer lineShift 16
par TargetNetwork.visualizer.routingTableVisualizer lineShiftMode "\"normal\""
par TargetNetwork.visualizer.routingTableVisualizer lineContactSpacing 3
par TargetNetwork.visualizer.routingTableVisualizer lineContactMode "\"rectangular\""
attr enum circular,rectangular
par TargetNetwork.visualizer.routingTableVisualizer labelFormat "\"%d/%m -> %g (%n)\""
attr mutable ""
par TargetNetwork.visualizer.routingTableVisualizer labelFont "\"<default>, 8px\""
par TargetNetwork.visualizer.routingTableVisualizer labelColor "\"black\""
par TargetNetwork.visualizer.routingTableVisualizer zIndex 0
par TargetNetwork.visualizer.transportRouteVisualizer typename "\"inet.visualizer.canvas.transportlayer.TransportRouteCanvasVisualizer\""
par TargetNetwork.visualizer.transportRouteVisualizer visualizationTargetModule "\"^.^\""
par TargetNetwork.visualizer.transportRouteVisualizer visualizationSubjectModule "\"^.^\""
par TargetNetwork.visualizer.transportRouteVisualizer tags "\"\""
par TargetNetwork.visualizer.transportRouteVisualizer displayRoutes false
par TargetNetwork.visualizer.transportRouteVisualizer startPathSignal "\"packetReceivedFromUpper\""
par TargetNetwork.visualizer.transportRouteVisualizer extendPathSignal "\"packetReceivedFromLower\""
par TargetNetwork.visualizer.transportRouteVisualizer endPathSignal "\"packetSentToUpper\""
par TargetNetwork.visualizer.transportRouteVisualizer nodeFilter "\"*\""
attr mutable ""
par TargetNetwork.visualizer.transportRouteVisualizer packetFilter "(omnetpp::cValueHolder)holder: \"*\""
attr mutable ""
par TargetNetwork.visualizer.transportRouteVisualizer lineColor "\"dark\""
attr enum light,dark
par TargetNetwork.visualizer.transportRouteVisualizer lineStyle "\"solid\""
par TargetNetwork.visualizer.transportRouteVisualizer lineWidth 3
par TargetNetwork.visualizer.transportRouteVisualizer lineSmooth false
par TargetNetwork.visualizer.transportRouteVisualizer lineShift 16
par TargetNetwork.visualizer.transportRouteVisualizer lineShiftMode "\"normal\""
par TargetNetwork.visualizer.transportRouteVisualizer lineContactSpacing 3
par TargetNetwork.visualizer.transportRouteVisualizer lineContactMode "\"rectangular\""
attr enum circular,rectangular
par TargetNetwork.visualizer.transportRouteVisualizer labelFormat "\"%n\""
par TargetNetwork.visualizer.transportRouteVisualizer labelFont "\"<default>, 8px\""
par TargetNetwork.visualizer.transportRouteVisualizer labelColor "\"\""
par TargetNetwork.visualizer.transportRouteVisualizer fadeOutMode "\"realTime\""
attr enum realTime,animationTime,simulationTime
par TargetNetwork.visualizer.transportRouteVisualizer fadeOutTime 1s
attr unit s
par TargetNetwork.visualizer.transportRouteVisualizer fadeOutAnimationSpeed 0
par TargetNetwork.visualizer.transportRouteVisualizer zIndex 4
par TargetNetwork.visualizer.transportConnectionVisualizer typename "\"inet.visualizer.canvas.transportlayer.TransportConnectionCanvasVisualizer\""
par TargetNetwork.visualizer.transportConnectionVisualizer visualizationTargetModule "\"^.^\""
par TargetNetwork.visualizer.transportConnectionVisualizer visualizationSubjectModule "\"^.^\""
par TargetNetwork.visualizer.transportConnectionVisualizer tags "\"\""
par TargetNetwork.visualizer.transportConnectionVisualizer networkNodeVisualizerModule "\"^.networkNodeVisualizer\""
par TargetNetwork.visualizer.transportConnectionVisualizer displayTransportConnections false
par TargetNetwork.visualizer.transportConnectionVisualizer sourceNodeFilter "\"*\""
attr mutable ""
par TargetNetwork.visualizer.transportConnectionVisualizer sourcePortFilter "\"*\""
attr mutable ""
par TargetNetwork.visualizer.transportConnectionVisualizer destinationNodeFilter "\"*\""
attr mutable ""
par TargetNetwork.visualizer.transportConnectionVisualizer destinationPortFilter "\"*\""
attr mutable ""
par TargetNetwork.visualizer.transportConnectionVisualizer icon "\"misc/marker_s\""
par TargetNetwork.visualizer.transportConnectionVisualizer iconColor "\"dark\""
attr enum light,dark
par TargetNetwork.visualizer.transportConnectionVisualizer labelFont "\"<default>\""
par TargetNetwork.visualizer.transportConnectionVisualizer labelColor "\"black\""
par TargetNetwork.visualizer.transportConnectionVisualizer placementHint "\"top\""
par TargetNetwork.visualizer.transportConnectionVisualizer placementPriority 0
par TargetNetwork.visualizer.transportConnectionVisualizer zIndex 4
par TargetNetwork.visualizer.failureProtectionConfigurationVisualizer typename "\"inet.visualizer.canvas.configurator.FailureProtectionConfigurationCanvasVisualizer\""
par TargetNetwork.visualizer.failureProtectionConfigurationVisualizer visualizationTargetModule "\"^.^\""
par TargetNetwork.visualizer.failureProtectionConfigurationVisualizer visualizationSubjectModule "\"^.^\""
par TargetNetwork.visualizer.failureProtectionConfigurationVisualizer tags "\"\""
par TargetNetwork.visualizer.failureProtectionConfigurationVisualizer displayTrees false
par TargetNetwork.visualizer.failureProtectionConfigurationVisualizer lineColor "\"dark\""
attr enum light,dark
par TargetNetwork.visualizer.failureProtectionConfigurationVisualizer lineStyle "\"solid\""
par TargetNetwork.visualizer.failureProtectionConfigurationVisualizer lineWidth 3
par TargetNetwork.visualizer.failureProtectionConfigurationVisualizer lineSmooth false
par TargetNetwork.visualizer.failureProtectionConfigurationVisualizer lineShift 16
par TargetNetwork.visualizer.failureProtectionConfigurationVisualizer lineShiftMode "\"normal\""
par TargetNetwork.visualizer.failureProtectionConfigurationVisualizer lineContactSpacing 3
par TargetNetwork.visualizer.failureProtectionConfigurationVisualizer lineContactMode "\"rectangular\""
attr enum circular,rectangular
par TargetNetwork.visualizer.failureProtectionConfigurationVisualizer failureProtectionConfiguratorModule "\"failureProtectionConfigurator\""
par TargetNetwork.visualizer.failureProtectionConfigurationVisualizer streamFilter "\"*\""
par TargetNetwork.visualizer.failureProtectionConfigurationVisualizer zIndex 3
par TargetNetwork.visualizer.streamRedundancyConfigurationVisualizer typename "\"inet.visualizer.canvas.configurator.StreamRedundancyConfigurationCanvasVisualizer\""
par TargetNetwork.visualizer.streamRedundancyConfigurationVisualizer visualizationTargetModule "\"^.^\""
par TargetNetwork.visualizer.streamRedundancyConfigurationVisualizer visualizationSubjectModule "\"^.^\""
par TargetNetwork.visualizer.streamRedundancyConfigurationVisualizer tags "\"\""
par TargetNetwork.visualizer.streamRedundancyConfigurationVisualizer displayTrees false
par TargetNetwork.visualizer.streamRedundancyConfigurationVisualizer lineColor "\"dark\""
attr enum light,dark
par TargetNetwork.visualizer.streamRedundancyConfigurationVisualizer lineStyle "\"solid\""
par TargetNetwork.visualizer.streamRedundancyConfigurationVisualizer lineWidth 3
par TargetNetwork.visualizer.streamRedundancyConfigurationVisualizer lineSmooth false
par TargetNetwork.visualizer.streamRedundancyConfigurationVisualizer lineShift 16
par TargetNetwork.visualizer.streamRedundancyConfigurationVisualizer lineShiftMode "\"normal\""
par TargetNetwork.visualizer.streamRedundancyConfigurationVisualizer lineContactSpacing 3
par TargetNetwork.visualizer.streamRedundancyConfigurationVisualizer lineContactMode "\"rectangular\""
attr enum circular,rectangular
par TargetNetwork.visualizer.streamRedundancyConfigurationVisualizer streamRedundancyConfiguratorModule "\"streamRedundancyConfigurator\""
par TargetNetwork.visualizer.streamRedundancyConfigurationVisualizer streamFilter "\"*\""
par TargetNetwork.visualizer.streamRedundancyConfigurationVisualizer zIndex 3
par TargetNetwork.visualizer typename "\"inet.visualizer.canvas.integrated.IntegratedCanvasVisualizer\""
par TargetNetwork.configurator typename "\"inet.networklayer.configurator.ipv4.Ipv4NetworkConfigurator\""
par TargetNetwork.configurator minLinkWeight 0.001
par TargetNetwork.configurator configureIsolatedNetworksSeparatly false
par TargetNetwork.configurator config "<config>...</config> at content:1"
par TargetNetwork.configurator assignAddresses true
par TargetNetwork.configurator assignUniqueAddresses true
par TargetNetwork.configurator assignDisjunctSubnetAddresses true
par TargetNetwork.configurator addStaticRoutes true
par TargetNetwork.configurator addDefaultRoutes true
par TargetNetwork.configurator addSubnetRoutes true
par TargetNetwork.configurator addDirectRoutes true
par TargetNetwork.configurator optimizeRoutes true
par TargetNetwork.configurator dumpTopology false
par TargetNetwork.configurator dumpLinks false
par TargetNetwork.configurator dumpAddresses false
par TargetNetwork.configurator dumpRoutes false
par TargetNetwork.configurator dumpConfig "\"\""
par TargetNetwork.macForwardingTableConfigurator typename "\"inet.linklayer.configurator.MacForwardingTableConfigurator\""
par TargetNetwork.udp_cpu.ethg$i[0].channel typename "\"ned.IdealChannel\""
par TargetNetwork.udp_cpu.eth[0].phys$o.channel typename "\"ned.IdealChannel\""
par TargetNetwork.udp_cpu.interfaceTable typename "\"inet.networklayer.common.InterfaceTable\""
par TargetNetwork.udp_cpu.interfaceTable displayAddresses false
par TargetNetwork.udp_cpu.cb typename "\"inet.common.MessageDispatcher\""
par TargetNetwork.udp_cpu.cb displayStringTextFormat "\"processed %p pk (%l)\""
par TargetNetwork.udp_cpu.cb forwardServiceRegistration true
par TargetNetwork.udp_cpu.cb forwardProtocolRegistration true
par TargetNetwork.udp_cpu.bl typename "\"inet.common.MessageDispatcher\""
par TargetNetwork.udp_cpu.bl displayStringTextFormat "\"processed %p pk (%l)\""
par TargetNetwork.udp_cpu.bl forwardServiceRegistration true
par TargetNetwork.udp_cpu.bl forwardProtocolRegistration true
par TargetNetwork.udp_cpu.ethernet typename "\"inet.linklayer.ethernet.basic.EthernetEncapsulation\""
par TargetNetwork.udp_cpu.ethernet registerProtocol true
par TargetNetwork.udp_cpu.ethernet interfaceTableModule "\"TargetNetwork.udp_cpu.interfaceTable\""
par TargetNetwork.udp_cpu.ethernet fcsMode "\"declared\""
attr enum declared,computed
par TargetNetwork.udp_cpu.ethernet stopOperationExtraTime -1s
attr unit s
par TargetNetwork.udp_cpu.ethernet stopOperationTimeout 2s
attr unit s
scalar TargetNetwork.udp_cpu.ethernet decapPk:count 0
attr interpolationmode none
attr recordingmode count
attr source decapPk
attr title "packets decapsulated, count"
scalar TargetNetwork.udp_cpu.ethernet decapPk:sum(packetBytes) 0
attr interpolationmode none
attr recordingmode sum(packetBytes)
attr source decapPk
attr title "packets decapsulated, sum(packetBytes)"
scalar TargetNetwork.udp_cpu.ethernet encapPk:count 15408
attr interpolationmode none
attr recordingmode count
attr source encapPk
attr title "packets encapsulated, count"
scalar TargetNetwork.udp_cpu.ethernet encapPk:sum(packetBytes) 18921024
attr interpolationmode none
attr recordingmode sum(packetBytes)
attr source encapPk
attr title "packets encapsulated, sum(packetBytes)"
scalar TargetNetwork.udp_cpu.ethernet pauseSent:count 0
attr recordingmode count
attr title "pause sent, count"
scalar TargetNetwork.udp_cpu.ethernet pauseSent:sum 0
attr recordingmode sum
attr title "pause sent, sum"
par TargetNetwork.udp_cpu.li typename "\"inet.common.MessageDispatcher\""
par TargetNetwork.udp_cpu.li displayStringTextFormat "\"processed %p pk (%l)\""
par TargetNetwork.udp_cpu.li forwardServiceRegistration true
par TargetNetwork.udp_cpu.li forwardProtocolRegistration true
par TargetNetwork.udp_cpu.lo[0].upperLayerIn.channel typename "\"ned.IdealChannel\""
par TargetNetwork.udp_cpu.lo[0].lo.upperLayerOut.channel typename "\"ned.IdealChannel\""
par TargetNetwork.udp_cpu.lo[0].lo typename "\"inet.linklayer.loopback.Loopback\""
par TargetNetwork.udp_cpu.lo[0].lo interfaceTableModule "\"TargetNetwork.udp_cpu.interfaceTable\""
par TargetNetwork.udp_cpu.lo[0].lo mtu 4470B
attr unit B
scalar TargetNetwork.udp_cpu.lo[0].lo rcvdPkFromHl:count 0
attr interpolationmode none
attr recordingmode count
attr source packetReceivedFromUpper
attr title "packets received from higher layer, count"
scalar TargetNetwork.udp_cpu.lo[0].lo rcvdPkFromHl:sum(packetBytes) 0
attr interpolationmode none
attr recordingmode sum(packetBytes)
attr source packetReceivedFromUpper
attr title "packets received from higher layer, sum(packetBytes)"
scalar TargetNetwork.udp_cpu.lo[0].lo passedUpPk:count 0
attr interpolationmode none
attr recordingmode count
attr source packetSentToUpper
attr title "packets passed to higher layer, count"
scalar TargetNetwork.udp_cpu.lo[0].lo passedUpPk:sum(packetBytes) 0
attr interpolationmode none
attr recordingmode sum(packetBytes)
attr source packetSentToUpper
attr title "packets passed to higher layer, sum(packetBytes)"
par TargetNetwork.udp_cpu.lo[0] typename "\"inet.linklayer.loopback.LoopbackInterface\""
par TargetNetwork.udp_cpu.lo[0] displayStringTextFormat "\"%a (%i)\\n%m\""
par TargetNetwork.udp_cpu.lo[0] recordPcap false
par TargetNetwork.udp_cpu.lo[0] numPcapRecorders 0
par TargetNetwork.udp_cpu.lo[0] interfaceTableModule "\"TargetNetwork.udp_cpu.interfaceTable\""
scalar TargetNetwork.udp_cpu.lo[0] packetDropInterfaceDown:count 0
attr interpolationmode none
attr recordingmode count
attr source packetDropReasonIsInterfaceDown(packetDropped)
attr title "packet drops: interface down, count"
scalar TargetNetwork.udp_cpu.lo[0] packetDropInterfaceDown:sum(packetBytes) 0
attr interpolationmode none
attr recordingmode sum(packetBytes)
attr source packetDropReasonIsInterfaceDown(packetDropped)
attr title "packet drops: interface down, sum(packetBytes)"
scalar TargetNetwork.udp_cpu.lo[0] packetDropNoCarrier:count 0
attr interpolationmode none
attr recordingmode count
attr source packetDropReasonIsNoCarrier(packetDropped)
attr title "packet drops: no carrier, count"
scalar TargetNetwork.udp_cpu.lo[0] packetDropNoCarrier:sum(packetBytes) 0
attr interpolationmode none
attr recordingmode sum(packetBytes)
attr source packetDropReasonIsNoCarrier(packetDropped)
attr title "packet drops: no carrier, sum(packetBytes)"
par TargetNetwork.udp_cpu.eth[0].mac.phys$o.channel typename "\"ned.IdealChannel\""
par TargetNetwork.udp_cpu.eth[0].phys$i.channel typename "\"ned.IdealChannel\""
par TargetNetwork.udp_cpu.eth[0].upperLayerIn.channel typename "\"ned.IdealChannel\""
par TargetNetwork.udp_cpu.eth[0].mac.upperLayerOut.channel typename "\"ned.IdealChannel\""
par TargetNetwork.udp_cpu.eth[0].queue typename "\"inet.linklayer.ethernet.common.EthernetQueue\""
par TargetNetwork.udp_cpu.eth[0].queue displayStringTextFormat "\"contains %p pk (%l) pushed %u\\npulled %o removed %r dropped %d\""
par TargetNetwork.udp_cpu.eth[0].queue packetCapacity 1000
par TargetNetwork.udp_cpu.eth[0].queue dataCapacity -1b
attr unit b
par TargetNetwork.udp_cpu.eth[0].queue dropperClass "\"inet::queueing::PacketAtCollectionEndDropper\""
par TargetNetwork.udp_cpu.eth[0].queue comparatorClass "\"inet::EthernetFrameTypeComparator\""
par TargetNetwork.udp_cpu.eth[0].queue bufferModule "\"\""
scalar TargetNetwork.udp_cpu.eth[0].queue queueLength:last 736
attr autoWarmupFilter false
attr interpolationmode sample-hold
attr recordingmode last
attr source "warmup(atomic(constant0(packetPushEnded) + count(packetPushStarted) - count(packetPulled) - count(packetRemoved) - count(packetDropped)))"
attr title "queue length, last"
attr unit pk
scalar TargetNetwork.udp_cpu.eth[0].queue queueLength:max 794
attr autoWarmupFilter false
attr interpolationmode sample-hold
attr recordingmode max
attr source "warmup(atomic(constant0(packetPushEnded) + count(packetPushStarted) - count(packetPulled) - count(packetRemoved) - count(packetDropped)))"
attr title "queue length, max"
attr unit pk
scalar TargetNetwork.udp_cpu.eth[0].queue queueLength:timeavg 338.05716990686
attr autoWarmupFilter false
attr interpolationmode sample-hold
attr recordingmode timeavg
attr source "warmup(atomic(constant0(packetPushEnded) + count(packetPushStarted) - count(packetPulled) - count(packetRemoved) - count(packetDropped)))"
attr title "queue length, timeavg"
attr unit pk
scalar TargetNetwork.udp_cpu.eth[0].queue queueBitLength:last 7336448
attr autoWarmupFilter false
attr interpolationmode sample-hold
attr recordingmode last
attr source "warmup(atomic(constant0(packetPushEnded) + sum(packetLength(packetPushStarted)) - sum(packetLength(packetPulled)) - sum(packetLength(packetRemoved)) - sum(packetLength(packetDropped))))"
attr title "queue bit length, last"
attr unit b
scalar TargetNetwork.udp_cpu.eth[0].queue queueBitLength:max 7914592
attr autoWarmupFilter false
attr interpolationmode sample-hold
attr recordingmode max
attr source "warmup(atomic(constant0(packetPushEnded) + sum(packetLength(packetPushStarted)) - sum(packetLength(packetPulled)) - sum(packetLength(packetRemoved)) - sum(packetLength(packetDropped))))"
attr title "queue bit length, max"
attr unit b
scalar TargetNetwork.udp_cpu.eth[0].queue queueBitLength:timeavg 3369753.8696316
attr autoWarmupFilter false
attr interpolationmode sample-hold
attr recordingmode timeavg
attr source "warmup(atomic(constant0(packetPushEnded) + sum(packetLength(packetPushStarted)) - sum(packetLength(packetPulled)) - sum(packetLength(packetRemoved)) - sum(packetLength(packetDropped))))"
attr title "queue bit length, timeavg"
attr unit b
statistic TargetNetwork.udp_cpu.eth[0].queue queueingTime:histogram
field count 14672
field mean 0.032605559087552
field stddev 0.023325029143822
field min 0
field max 0.078134757979
field sum 478.38876293256
field sqrsum 23.5799930971
attr interpolationmode none
attr recordingmode histogram
attr source queueingTime(packetPulled)
attr title "queueing times"
attr unit s
bin	-inf	0
bin	0	1334
bin	0.00128	1214
bin	0.00256	535
bin	0.00384	435
bin	0.00512	148
bin	0.0064	182
bin	0.00768	72
bin	0.00896	37
bin	0.01024	44
bin	0.01152	73
bin	0.0128	56
bin	0.01408	99
bin	0.01536	176
bin	0.01664	122
bin	0.01792	292
bin	0.0192	373
bin	0.02048	406
bin	0.02176	563
bin	0.02304	147
bin	0.02432	122
bin	0.0256	88
bin	0.02688	36
bin	0.02816	54
bin	0.02944	108
bin	0.03072	209
bin	0.032	456
bin	0.03328	219
bin	0.03456	197
bin	0.03584	370
bin	0.03712	205
bin	0.0384	126
bin	0.03968	104
bin	0.04096	140
bin	0.04224	73
bin	0.04352	64
bin	0.0448	121
bin	0.04608	121
bin	0.04736	160
bin	0.04864	227
bin	0.04992	339
bin	0.0512	289
bin	0.05248	476
bin	0.05376	586
bin	0.05504	617
bin	0.05632	562
bin	0.0576	353
bin	0.05888	166
bin	0.06016	348
bin	0.06144	253
bin	0.06272	70
bin	0.064	143
bin	0.06528	184
bin	0.06656	266
bin	0.06784	192
bin	0.06912	52
bin	0.0704	28
bin	0.07168	26
bin	0.07296	38
bin	0.07424	59
bin	0.07552	82
bin	0.0768	34
bin	0.07808	1
bin	0.07936	0
scalar TargetNetwork.udp_cpu.eth[0].queue outgoingPackets:count 14672
attr recordingmode count
attr source packetPulled
attr title "outgoing packets, count"
attr unit pk
scalar TargetNetwork.udp_cpu.eth[0].queue outgoingPacketLengths:sum 146250496
attr interpolationmode none
attr recordingmode sum
attr source packetLength(packetPulled)
attr title "outgoing packet lengths, sum"
attr unit b
statistic TargetNetwork.udp_cpu.eth[0].queue outgoingPacketLengths:histogram
field count 14672
field mean 9968
field stddev 0
field min 9968
field max 9968
field sum 146250496
field sqrsum 1457824944128
attr interpolationmode none
attr recordingmode histogram
attr source packetLength(packetPulled)
attr title "outgoing packet lengths"
attr unit b
bin	-inf	0
bin	9967	0
bin	9968	14672
bin	9969	0
statistic TargetNetwork.udp_cpu.eth[0].queue flowQueueingTime:histogram
field count 0
field mean nan
field stddev nan
field min nan
field max nan
field sum 0
field sqrsum 0
attr interpolationmode none
attr recordingmode histogram
attr source queueingTime(demuxFlow(packetPulled))
attr title "flow queueing times"
attr unit s
bin	-inf	0
bin	0	0
bin	1	0
scalar TargetNetwork.udp_cpu.eth[0].queue incomingPackets:count 15408
attr recordingmode count
attr source packetPushStarted
attr title "incoming packets, count"
attr unit pk
scalar TargetNetwork.udp_cpu.eth[0].queue incomingPacketLengths:sum 153586944
attr interpolationmode none
attr recordingmode sum
attr source packetLength(packetPushStarted)
attr title "incoming packet lengths, sum"
attr unit b
statistic TargetNetwork.udp_cpu.eth[0].queue incomingPacketLengths:histogram
field count 15408
field mean 9968
field stddev 0
field min 9968
field max 9968
field sum 153586944
field sqrsum 1530954657792
attr interpolationmode none
attr recordingmode histogram
attr source packetLength(packetPushStarted)
attr title "incoming packet lengths"
attr unit b
bin	-inf	0
bin	9967	0
bin	9968	15408
bin	9969	0
scalar TargetNetwork.udp_cpu.eth[0].queue droppedPacketsQueueOverflow:count 0
attr interpolationmode none
attr recordingmode count
attr source packetDropReasonIsQueueOverflow(packetDropped)
attr title "dropped packets: queue overflow, count"
attr unit pk
scalar TargetNetwork.udp_cpu.eth[0].queue droppedPacketLengthsQueueOverflow:sum 0
attr interpolationmode none
attr recordingmode sum
attr source packetLength(packetDropReasonIsQueueOverflow(packetDropped))
attr title "dropped packet lengths: queue overflow, sum"
attr unit b
par TargetNetwork.udp_cpu.eth[0].mac typename "\"inet.linklayer.ethernet.basic.EthernetMac\""
par TargetNetwork.udp_cpu.eth[0].mac interfaceTableModule "\"TargetNetwork.udp_cpu.interfaceTable\""
par TargetNetwork.udp_cpu.eth[0].mac displayStringTextFormat "\"rate: %b\\nsent: %s, rcvd: %r\\nqueue: %q, drop: %d\""
par TargetNetwork.udp_cpu.eth[0].mac sendRawBytes false
par TargetNetwork.udp_cpu.eth[0].mac promiscuous false
par TargetNetwork.udp_cpu.eth[0].mac duplexMode true
par TargetNetwork.udp_cpu.eth[0].mac mtu 1500B
attr unit B
par TargetNetwork.udp_cpu.eth[0].mac fcsMode "\"declared\""
attr enum declared,computed
par TargetNetwork.udp_cpu.eth[0].mac stopOperationExtraTime -1s
attr unit s
par TargetNetwork.udp_cpu.eth[0].mac stopOperationTimeout 2s
attr unit s
scalar TargetNetwork.udp_cpu.eth[0].mac "simulated time" 1.5
scalar TargetNetwork.udp_cpu.eth[0].mac full-duplex 1
scalar TargetNetwork.udp_cpu.eth[0].mac "frames/sec sent" 9780.6666666667
scalar TargetNetwork.udp_cpu.eth[0].mac "frames/sec rcvd" 0
scalar TargetNetwork.udp_cpu.eth[0].mac "bits/sec sent" 97493685.333333
scalar TargetNetwork.udp_cpu.eth[0].mac "bits/sec rcvd" 0
scalar TargetNetwork.udp_cpu.eth[0].mac "rx channel idle (%)" 100
scalar TargetNetwork.udp_cpu.eth[0].mac "rx channel utilization (%)" 0
scalar TargetNetwork.udp_cpu.eth[0].mac txPk:count 14671
attr interpolationmode none
attr recordingmode count
attr source packetSentToLower
attr title "packets transmitted, count"
scalar TargetNetwork.udp_cpu.eth[0].mac txPk:sum(packetBytes) 18280066
attr interpolationmode none
attr recordingmode sum(packetBytes)
attr source packetSentToLower
attr title "packets transmitted, sum(packetBytes)"
scalar TargetNetwork.udp_cpu.eth[0].mac packetReceivedFromUpper:count 14672
attr interpolationmode none
attr recordingmode count
attr source packetReceivedFromUpper
attr title "packet bytes from higher layer, count"
scalar TargetNetwork.udp_cpu.eth[0].mac packetReceivedFromUpper:sum(packetBytes) 18281312
attr interpolationmode none
attr recordingmode sum(packetBytes)
attr source packetReceivedFromUpper
attr title "packet bytes from higher layer, sum(packetBytes)"
scalar TargetNetwork.udp_cpu.eth[0].mac passedUpPk:count 0
attr interpolationmode none
attr recordingmode count
attr source packetSentToUpper
attr title "packets passed to higher layer, count"
scalar TargetNetwork.udp_cpu.eth[0].mac passedUpPk:sum(packetBytes) 0
attr interpolationmode none
attr recordingmode sum(packetBytes)
attr source packetSentToUpper
attr title "packets passed to higher layer, sum(packetBytes)"
scalar TargetNetwork.udp_cpu.eth[0].mac packetDropIncorrectlyReceived:count 0
attr interpolationmode none
attr recordingmode count
attr source packetDropReasonIsIncorrectlyReceived(packetDropped)
attr title "packet drop: incorrectly received, count"
scalar TargetNetwork.udp_cpu.eth[0].mac packetDropIncorrectlyReceived:sum(packetBytes) 0
attr interpolationmode none
attr recordingmode sum(packetBytes)
attr source packetDropReasonIsIncorrectlyReceived(packetDropped)
attr title "packet drop: incorrectly received, sum(packetBytes)"
scalar TargetNetwork.udp_cpu.eth[0].mac packetDropInterfaceDown:count 0
attr interpolationmode none
attr recordingmode count
attr source packetDropReasonIsInterfaceDown(packetDropped)
attr title "packet drop: interface down, count"
scalar TargetNetwork.udp_cpu.eth[0].mac packetDropInterfaceDown:sum(packetBytes) 0
attr interpolationmode none
attr recordingmode sum(packetBytes)
attr source packetDropReasonIsInterfaceDown(packetDropped)
attr title "packet drop: interface down, sum(packetBytes)"
scalar TargetNetwork.udp_cpu.eth[0].mac packetDropNotAddressedToUs:count 0
attr interpolationmode none
attr recordingmode count
attr source packetDropReasonIsNotAddressedToUs(packetDropped)
attr title "packet drop: not addressed to us, count"
scalar TargetNetwork.udp_cpu.eth[0].mac packetDropNotAddressedToUs:sum(packetBytes) 0
attr interpolationmode none
attr recordingmode sum(packetBytes)
attr source packetDropReasonIsNotAddressedToUs(packetDropped)
attr title "packet drop: not addressed to us, sum(packetBytes)"
scalar TargetNetwork.udp_cpu.eth[0].mac rxPausePkUnits:count 0
attr interpolationmode none
attr recordingmode count
attr title "pause units received, count"
scalar TargetNetwork.udp_cpu.eth[0].mac rxPausePkUnits:sum 0
attr interpolationmode none
attr recordingmode sum
attr title "pause units received, sum"
scalar TargetNetwork.udp_cpu.eth[0].mac txPausePkUnits:count 0
attr interpolationmode none
attr recordingmode count
attr title "pause units sent, count"
scalar TargetNetwork.udp_cpu.eth[0].mac txPausePkUnits:sum 0
attr interpolationmode none
attr recordingmode sum
attr title "pause units sent, sum"
scalar TargetNetwork.udp_cpu.eth[0].mac rxPkOk:count 0
attr interpolationmode none
attr recordingmode count
attr source rxPkOk
attr title "packets received OK, count"
scalar TargetNetwork.udp_cpu.eth[0].mac rxPkOk:sum(packetBytes) 0
attr interpolationmode none
attr recordingmode sum(packetBytes)
attr source rxPkOk
attr title "packets received OK, sum(packetBytes)"
par TargetNetwork.udp_cpu.eth[0] typename "\"inet.linklayer.ethernet.EthernetInterface\""
par TargetNetwork.udp_cpu.eth[0] displayStringTextFormat "\"%a (%i)\\n%m\""
par TargetNetwork.udp_cpu.eth[0] recordPcap false
par TargetNetwork.udp_cpu.eth[0] numPcapRecorders 0
par TargetNetwork.udp_cpu.eth[0] interfaceTableModule "\"TargetNetwork.udp_cpu.interfaceTable\""
par TargetNetwork.udp_cpu.eth[0] protocol "\"ethernetmac\""
par TargetNetwork.udp_cpu.eth[0] address "\"0A-AA-00-00-00-01\""
attr mutable ""
par TargetNetwork.udp_cpu.eth[0] duplexMode true
par TargetNetwork.udp_cpu.eth[0] csmacdSupport false
par TargetNetwork.udp_cpu.eth[0] bitrate 0bps
attr unit bps
par TargetNetwork.udp_cpu.eth[0] fcsMode "\"declared\""
attr enum declared,computed
scalar TargetNetwork.udp_cpu.eth[0] packetDropInterfaceDown:count 0
attr interpolationmode none
attr recordingmode count
attr source packetDropReasonIsInterfaceDown(packetDropped)
attr title "packet drops: interface down, count"
scalar TargetNetwork.udp_cpu.eth[0] packetDropInterfaceDown:sum(packetBytes) 0
attr interpolationmode none
attr recordingmode sum(packetBytes)
attr source packetDropReasonIsInterfaceDown(packetDropped)
attr title "packet drops: interface down, sum(packetBytes)"
scalar TargetNetwork.udp_cpu.eth[0] packetDropNoCarrier:count 0
attr interpolationmode none
attr recordingmode count
attr source packetDropReasonIsNoCarrier(packetDropped)
attr title "packet drops: no carrier, count"
scalar TargetNetwork.udp_cpu.eth[0] packetDropNoCarrier:sum(packetBytes) 0
attr interpolationmode none
attr recordingmode sum(packetBytes)
attr source packetDropReasonIsNoCarrier(packetDropped)
attr title "packet drops: no carrier, sum(packetBytes)"
par TargetNetwork.udp_cpu.ipv4.transportIn.channel typename "\"ned.IdealChannel\""
par TargetNetwork.udp_cpu.ipv4.up.out[0].channel typename "\"ned.IdealChannel\""
par TargetNetwork.udp_cpu.ipv4.lp.out[2].channel typename "\"ned.IdealChannel\""
par TargetNetwork.udp_cpu.ipv4.ifIn.channel typename "\"ned.IdealChannel\""
par TargetNetwork.udp_cpu.ipv4.configurator typename "\"inet.networklayer.configurator.ipv4.Ipv4NodeConfigurator\""
par TargetNetwork.udp_cpu.ipv4.configurator interfaceTableModule "\"TargetNetwork.udp_cpu.interfaceTable\""
par TargetNetwork.udp_cpu.ipv4.configurator routingTableModule "\"TargetNetwork.udp_cpu.ipv4.routingTable\""
par TargetNetwork.udp_cpu.ipv4.configurator networkConfiguratorModule "\"configurator\""
par TargetNetwork.udp_cpu.ipv4.configurator configureRoutingTable true
par TargetNetwork.udp_cpu.ipv4.routingTable typename "\"inet.networklayer.ipv4.Ipv4RoutingTable\""
par TargetNetwork.udp_cpu.ipv4.routingTable interfaceTableModule "\"TargetNetwork.udp_cpu.interfaceTable\""
par TargetNetwork.udp_cpu.ipv4.routingTable routerId "\"auto\""
par TargetNetwork.udp_cpu.ipv4.routingTable netmaskRoutes "\"*\""
par TargetNetwork.udp_cpu.ipv4.routingTable forwarding false
par TargetNetwork.udp_cpu.ipv4.routingTable multicastForwarding false
par TargetNetwork.udp_cpu.ipv4.routingTable useAdminDist false
par TargetNetwork.udp_cpu.ipv4.routingTable routingFile "\"\""
par TargetNetwork.udp_cpu.ipv4.natTable typename "\"inet.networklayer.ipv4.Ipv4NatTable\""
par TargetNetwork.udp_cpu.ipv4.natTable networkProtocolModule "\"^.ip\""
par TargetNetwork.udp_cpu.ipv4.natTable config "<config/> at content:1"
par TargetNetwork.udp_cpu.ipv4.up typename "\"inet.common.MessageDispatcher\""
par TargetNetwork.udp_cpu.ipv4.up displayStringTextFormat "\"processed %p pk (%l)\""
par TargetNetwork.udp_cpu.ipv4.up forwardServiceRegistration true
par TargetNetwork.udp_cpu.ipv4.up forwardProtocolRegistration true
par TargetNetwork.udp_cpu.ipv4.igmp typename "\"inet.networklayer.ipv4.Igmpv2\""
par TargetNetwork.udp_cpu.ipv4.igmp interfaceTableModule "\"TargetNetwork.udp_cpu.interfaceTable\""
par TargetNetwork.udp_cpu.ipv4.igmp routingTableModule "\"TargetNetwork.udp_cpu.ipv4.routingTable\""
par TargetNetwork.udp_cpu.ipv4.igmp crcMode "\"declared\""
attr enum declared,computed
par TargetNetwork.udp_cpu.ipv4.igmp enabled true
par TargetNetwork.udp_cpu.ipv4.igmp robustnessVariable 2
par TargetNetwork.udp_cpu.ipv4.igmp queryInterval 125s
attr unit s
par TargetNetwork.udp_cpu.ipv4.igmp queryResponseInterval 10s
attr unit s
par TargetNetwork.udp_cpu.ipv4.igmp groupMembershipInterval 260s
attr unit s
par TargetNetwork.udp_cpu.ipv4.igmp otherQuerierPresentInterval 255s
attr unit s
par TargetNetwork.udp_cpu.ipv4.igmp startupQueryInterval 31.25s
attr unit s
par TargetNetwork.udp_cpu.ipv4.igmp startupQueryCount 2
par TargetNetwork.udp_cpu.ipv4.igmp lastMemberQueryInterval 1s
attr unit s
par TargetNetwork.udp_cpu.ipv4.igmp lastMemberQueryCount 2
par TargetNetwork.udp_cpu.ipv4.igmp unsolicitedReportInterval 10s
attr unit s
par TargetNetwork.udp_cpu.ipv4.icmp typename "\"inet.networklayer.ipv4.Icmp\""
par TargetNetwork.udp_cpu.ipv4.icmp interfaceTableModule "\"TargetNetwork.udp_cpu.interfaceTable\""
par TargetNetwork.udp_cpu.ipv4.icmp routingTableModule "\"TargetNetwork.udp_cpu.ipv4.routingTable\""
par TargetNetwork.udp_cpu.ipv4.icmp crcMode "\"declared\""
attr enum declared,computed
attr mutable ""
par TargetNetwork.udp_cpu.ipv4.icmp quoteLength 8B
attr mutable ""
attr unit B
par TargetNetwork.udp_cpu.ipv4.mp typename "\"inet.common.MessageDispatcher\""
par TargetNetwork.udp_cpu.ipv4.mp displayStringTextFormat "\"processed %p pk (%l)\""
par TargetNetwork.udp_cpu.ipv4.mp forwardServiceRegistration true
par TargetNetwork.udp_cpu.ipv4.mp forwardProtocolRegistration true
par TargetNetwork.udp_cpu.ipv4.ip typename "\"inet.networklayer.ipv4.Ipv4\""
par TargetNetwork.udp_cpu.ipv4.ip interfaceTableModule "\"TargetNetwork.udp_cpu.interfaceTable\""
par TargetNetwork.udp_cpu.ipv4.ip routingTableModule "\"TargetNetwork.udp_cpu.ipv4.routingTable\""
par TargetNetwork.udp_cpu.ipv4.ip arpModule "\"TargetNetwork.udp_cpu.ipv4.arp\""
par TargetNetwork.udp_cpu.ipv4.ip icmpModule "\"TargetNetwork.udp_cpu.ipv4.icmp\""
par TargetNetwork.udp_cpu.ipv4.ip crcMode "\"declared\""
attr enum declared,computed
par TargetNetwork.udp_cpu.ipv4.ip timeToLive 32
par TargetNetwork.udp_cpu.ipv4.ip multicastTimeToLive 32
par TargetNetwork.udp_cpu.ipv4.ip fragmentTimeout 60s
attr unit s
par TargetNetwork.udp_cpu.ipv4.ip limitedBroadcast false
par TargetNetwork.udp_cpu.ipv4.ip directBroadcastInterfaces "\"\""
scalar TargetNetwork.udp_cpu.ipv4.ip packetDropAddressResolutionFailed:count 0
attr interpolationmode none
attr recordingmode count
attr source packetDropReasonIsAddressResolutionFailed(packetDropped)
attr title "packet drop: address resolution failed, count"
scalar TargetNetwork.udp_cpu.ipv4.ip packetDropAddressResolutionFailed:sum(packetBytes) 0
attr interpolationmode none
attr recordingmode sum(packetBytes)
attr source packetDropReasonIsAddressResolutionFailed(packetDropped)
attr title "packet drop: address resolution failed, sum(packetBytes)"
scalar TargetNetwork.udp_cpu.ipv4.ip packetDropHopLimitReached:count 0
attr interpolationmode none
attr recordingmode count
attr source packetDropReasonIsHopLimitReached(packetDropped)
attr title "packet drop: hop limit reached, count"
scalar TargetNetwork.udp_cpu.ipv4.ip packetDropHopLimitReached:sum(packetBytes) 0
attr interpolationmode none
attr recordingmode sum(packetBytes)
attr source packetDropReasonIsHopLimitReached(packetDropped)
attr title "packet drop: hop limit reached, sum(packetBytes)"
scalar TargetNetwork.udp_cpu.ipv4.ip packetDropForwardingDisabled:count 0
attr interpolationmode none
attr recordingmode count
attr source packetDropReasonIsForwardingDisabled(packetDropped)
attr title "packet drop: forwarding disabled, count"
scalar TargetNetwork.udp_cpu.ipv4.ip packetDropForwardingDisabled:sum(packetBytes) 0
attr interpolationmode none
attr recordingmode sum(packetBytes)
attr source packetDropReasonIsForwardingDisabled(packetDropped)
attr title "packet drop: forwarding disabled, sum(packetBytes)"
scalar TargetNetwork.udp_cpu.ipv4.ip packetDropNoInterfaceFound:count 0
attr interpolationmode none
attr recordingmode count
attr source packetDropReasonIsNoInterfaceFound(packetDropped)
attr title "packet drop: no interface found, count"
scalar TargetNetwork.udp_cpu.ipv4.ip packetDropNoInterfaceFound:sum(packetBytes) 0
attr interpolationmode none
attr recordingmode sum(packetBytes)
attr source packetDropReasonIsNoInterfaceFound(packetDropped)
attr title "packet drop: no interface found, sum(packetBytes)"
scalar TargetNetwork.udp_cpu.ipv4.ip packetDropNoRouteFound:count 0
attr interpolationmode none
attr recordingmode count
attr source packetDropReasonIsNoRouteFound(packetDropped)
attr title "packet drop: no route found, count"
scalar TargetNetwork.udp_cpu.ipv4.ip packetDropNoRouteFound:sum(packetBytes) 0
attr interpolationmode none
attr recordingmode sum(packetBytes)
attr source packetDropReasonIsNoRouteFound(packetDropped)
attr title "packet drop: no route found, sum(packetBytes)"
scalar TargetNetwork.udp_cpu.ipv4.ip packetDropUndefined:count 0
attr interpolationmode none
attr recordingmode count
attr source packetDropReasonIsUndefined(packetDropped)
attr title "packet drop: undefined, count"
scalar TargetNetwork.udp_cpu.ipv4.ip packetDropUndefined:sum(packetBytes) 0
attr interpolationmode none
attr recordingmode sum(packetBytes)
attr source packetDropReasonIsUndefined(packetDropped)
attr title "packet drop: undefined, sum(packetBytes)"
par TargetNetwork.udp_cpu.ipv4.arp typename "\"inet.networklayer.arp.ipv4.GlobalArp\""
par TargetNetwork.udp_cpu.ipv4.arp interfaceTableModule "\"TargetNetwork.udp_cpu.interfaceTable\""
par TargetNetwork.udp_cpu.ipv4.arp addressType "\"ipv4\""
attr enum ipv4,ipv6,mac,moduleid,modulepath
par TargetNetwork.udp_cpu.ipv4.lp typename "\"inet.common.MessageDispatcher\""
par TargetNetwork.udp_cpu.ipv4.lp displayStringTextFormat "\"processed %p pk (%l)\""
par TargetNetwork.udp_cpu.ipv4.lp forwardServiceRegistration true
par TargetNetwork.udp_cpu.ipv4.lp forwardProtocolRegistration true
par TargetNetwork.udp_cpu.ipv4 typename "\"inet.networklayer.ipv4.Ipv4NetworkLayer\""
par TargetNetwork.udp_cpu.ipv4 forwarding false
par TargetNetwork.udp_cpu.ipv4 multicastForwarding false
par TargetNetwork.udp_cpu.ipv4 interfaceTableModule "\"TargetNetwork.udp_cpu.interfaceTable\""
par TargetNetwork.udp_cpu.ipv4 displayStringTextFormat "\"%i\""
par TargetNetwork.udp_cpu.nl typename "\"inet.common.MessageDispatcher\""
par TargetNetwork.udp_cpu.nl displayStringTextFormat "\"processed %p pk (%l)\""
par TargetNetwork.udp_cpu.nl forwardServiceRegistration true
par TargetNetwork.udp_cpu.nl forwardProtocolRegistration true
par TargetNetwork.udp_cpu.udp typename "\"inet.transportlayer.udp.Udp\""
par TargetNetwork.udp_cpu.udp interfaceTableModule "\"TargetNetwork.udp_cpu.interfaceTable\""
par TargetNetwork.udp_cpu.udp icmpModule "\"^.ipv4.icmp\""
[...]
attr recordingmode histogram
attr source "packetLength(demuxFlow(merge(packetPushedIn, packetPulledIn)))"
attr title "flow specific incoming packet lengths"
attr unit b
bin	-inf	0
bin	0	0
bin	1	0
par TargetNetwork.udp_switch.eth[1].phyLayer.interFrameGapInserter typename "\"inet.protocolelement.common.InterpacketGapInserter\""
par TargetNetwork.udp_switch.eth[1].phyLayer.interFrameGapInserter displayStringTextFormat "\"delayed %p pk (%l)\\nifg: %g\""
par TargetNetwork.udp_switch.eth[1].phyLayer.interFrameGapInserter clockModule "\"\""
par TargetNetwork.udp_switch.eth[1].phyLayer.interFrameGapInserter initialChannelBusy false
par TargetNetwork.udp_switch.eth[1].phyLayer.interFrameGapInserter duration 96s/dropUnit(parent.bitrate)
attr unit s
par TargetNetwork.udp_switch.eth[1].phyLayer.outboundEmitter typename "\"inet.protocolelement.common.PacketEmitter\""
par TargetNetwork.udp_switch.eth[1].phyLayer.outboundEmitter displayStringTextFormat "\"processed %p pk (%l)\""
par TargetNetwork.udp_switch.eth[1].phyLayer.outboundEmitter packetFilter "(omnetpp::cValueHolder)holder: \"*\""
par TargetNetwork.udp_switch.eth[1].phyLayer.outboundEmitter direction "\"outbound\""
attr enum undefined,inbound,outbound
par TargetNetwork.udp_switch.eth[1].phyLayer.outboundEmitter signalName "\"packetSentToLower\""
scalar TargetNetwork.udp_switch.eth[1].phyLayer.outboundEmitter outgoingPackets:count 14671
attr recordingmode count
attr source "merge(packetPushedOut, packetPulledOut)"
attr title "outgoing packets, count"
attr unit pk
scalar TargetNetwork.udp_switch.eth[1].phyLayer.outboundEmitter outgoingPacketLengths:sum 147179472
attr interpolationmode none
attr recordingmode sum
attr source "packetLength(merge(packetPushedOut, packetPulledOut))"
attr title "outgoing packet lengths, sum"
attr unit b
statistic TargetNetwork.udp_switch.eth[1].phyLayer.outboundEmitter outgoingPacketLengths:histogram
field count 14671
field mean 10032
field stddev 0
field min 10032
field max 10032
field sum 147179472
field sqrsum 1476504463104
attr interpolationmode none
attr recordingmode histogram
attr source "packetLength(merge(packetPushedOut, packetPulledOut))"
attr title "outgoing packet lengths"
attr unit b
bin	-inf	0
bin	10031	0
bin	10032	14671
bin	10033	0
scalar TargetNetwork.udp_switch.eth[1].phyLayer.outboundEmitter flowOutgoingPacketLengths:sum 0
attr interpolationmode none
attr recordingmode sum
attr source "packetLength(demuxFlow(merge(packetPushedOut, packetPulledOut)))"
attr title "flow specific outgoing packet lengths, sum"
attr unit b
statistic TargetNetwork.udp_switch.eth[1].phyLayer.outboundEmitter flowOutgoingPacketLengths:histogram
field count 0
field mean nan
field stddev nan
field min nan
field max nan
field sum 0
field sqrsum 0
attr interpolationmode none
attr recordingmode histogram
attr source "packetLength(demuxFlow(merge(packetPushedOut, packetPulledOut)))"
attr title "flow specific outgoing packet lengths"
attr unit b
bin	-inf	0
bin	0	0
bin	1	0
scalar TargetNetwork.udp_switch.eth[1].phyLayer.outboundEmitter incomingPackets:count 14671
attr recordingmode count
attr source "merge(packetPushedIn, packetPulledIn)"
attr title "incoming packets, count"
attr unit pk
scalar TargetNetwork.udp_switch.eth[1].phyLayer.outboundEmitter incomingPacketLengths:sum 147179472
attr interpolationmode none
attr recordingmode sum
attr source "packetLength(merge(packetPushedIn, packetPulledIn))"
attr title "incoming packet lengths, sum"
attr unit b
statistic TargetNetwork.udp_switch.eth[1].phyLayer.outboundEmitter incomingPacketLengths:histogram
field count 14671
field mean 10032
field stddev 0
field min 10032
field max 10032
field sum 147179472
field sqrsum 1476504463104
attr interpolationmode none
attr recordingmode histogram
attr source "packetLength(merge(packetPushedIn, packetPulledIn))"
attr title "incoming packet lengths"
attr unit b
bin	-inf	0
bin	10031	0
bin	10032	14671
bin	10033	0
scalar TargetNetwork.udp_switch.eth[1].phyLayer.outboundEmitter flowIncomingPacketLengths:sum 0
attr interpolationmode none
attr recordingmode sum
attr source "packetLength(demuxFlow(merge(packetPushedIn, packetPulledIn)))"
attr title "flow specific incoming packet lengths, sum"
attr unit b
statistic TargetNetwork.udp_switch.eth[1].phyLayer.outboundEmitter flowIncomingPacketLengths:histogram
field count 0
field mean nan
field stddev nan
field min nan
field max nan
field sum 0
field sqrsum 0
attr interpolationmode none
attr recordingmode histogram
attr source "packetLength(demuxFlow(merge(packetPushedIn, packetPulledIn)))"
attr title "flow specific incoming packet lengths"
attr unit b
bin	-inf	0
bin	0	0
bin	1	0
par TargetNetwork.udp_switch.eth[1].phyLayer.transmitter typename "\"inet.protocolelement.transceiver.PacketTransmitter\""
par TargetNetwork.udp_switch.eth[1].phyLayer.transmitter displayStringTextFormat "\"processed %p pk (%l)\""
par TargetNetwork.udp_switch.eth[1].phyLayer.transmitter clockModule "\"\""
par TargetNetwork.udp_switch.eth[1].phyLayer.transmitter datarate this.bitrate
attr unit bps
scalar TargetNetwork.udp_switch.eth[1].phyLayer.transmitter propagationTime 0
statistic TargetNetwork.udp_switch.eth[1].phyLayer.transmitter utilization:histogram
field count 146
field mean 98.23779998423
field stddev 3.2770946744549
field min 80.654182822405
field max 99.052132701422
field sum 14342.718797698
field sqrsum 1410554.3461565
attr interpolationmode linear
attr recordingmode histogram
attr source "100 * utilization(count(transmissionStarted) - count(transmissionEnded))"
attr title utilization
attr unit %
bin	-inf	0
bin	76	0
bin	76.5	0
bin	77	0
bin	77.5	0
bin	78	0
bin	78.5	0
bin	79	0
bin	79.5	0
bin	80	0
bin	80.5	1
bin	81	1
bin	81.5	0
bin	82	0
bin	82.5	0
bin	83	1
bin	83.5	0
bin	84	2
bin	84.5	1
bin	85	0
bin	85.5	0
bin	86	0
bin	86.5	0
bin	87	0
bin	87.5	0
bin	88	0
bin	88.5	0
bin	89	0
bin	89.5	0
bin	90	0
bin	90.5	0
bin	91	0
bin	91.5	0
bin	92	0
bin	92.5	1
bin	93	0
bin	93.5	0
bin	94	1
bin	94.5	2
bin	95	1
bin	95.5	0
bin	96	0
bin	96.5	0
bin	97	0
bin	97.5	0
bin	98	0
bin	98.5	0
bin	99	135
bin	99.5	0
bin	100	0
bin	100.5	0
bin	101	0
bin	101.5	0
bin	102	0
bin	102.5	0
bin	103	0
bin	103.5	0
bin	104	0
statistic TargetNetwork.udp_switch.eth[1].phyLayer.transmitter transmissionTime:histogram
field count 14670
field mean 0.00010032000000002
field stddev 0
field min 0.00010032
field max 0.00010032
field sum 1.4716944000004
field sqrsum 0.00014764038220804
attr interpolationmode none
attr recordingmode histogram
attr source packetDuration(transmissionEnded)
attr title "transmission time"
attr unit s
bin	-inf	0
bin	0	14670
bin	0.01	0
bin	0.02	0
bin	0.03	0
bin	0.04	0
bin	0.05	0
bin	0.06	0
bin	0.07	0
bin	0.08	0
bin	0.09	0
bin	0.1	0
bin	0.11	0
bin	0.12	0
bin	0.13	0
bin	0.14	0
bin	0.15	0
bin	0.16	0
bin	0.17	0
bin	0.18	0
bin	0.19	0
bin	0.2	0
bin	0.21	0
bin	0.22	0
bin	0.23	0
bin	0.24	0
bin	0.25	0
bin	0.26	0
bin	0.27	0
bin	0.28	0
bin	0.29	0
bin	0.3	0
bin	0.31	0
bin	0.32	0
bin	0.33	0
bin	0.34	0
bin	0.35	0
bin	0.36	0
bin	0.37	0
bin	0.38	0
bin	0.39	0
bin	0.4	0
bin	0.41	0
bin	0.42	0
bin	0.43	0
bin	0.44	0
bin	0.45	0
bin	0.46	0
bin	0.47	0
bin	0.48	0
bin	0.49	0
bin	0.5	0
bin	0.51	0
statistic TargetNetwork.udp_switch.eth[1].phyLayer.transmitter flowTransmissionTime:histogram
field count 0
field mean nan
field stddev nan
field min nan
field max nan
field sum 0
field sqrsum 0
attr interpolationmode none
attr recordingmode histogram
attr source packetDuration(demuxFlow(transmissionEnded))
attr title "flow transmission time"
attr unit s
bin	-inf	0
bin	0	0
bin	1	0
par TargetNetwork.udp_switch.eth[1].phyLayer.phyHeaderChecker typename "\"inet.physicallayer.wired.ethernet.EthernetPhyHeaderChecker\""
par TargetNetwork.udp_switch.eth[1].phyLayer.phyHeaderChecker displayStringTextFormat "\"dropped %d/%p pk (%k/%l)\""
par TargetNetwork.udp_switch.eth[1].phyLayer.phyHeaderChecker backpressure false
scalar TargetNetwork.udp_switch.eth[1].phyLayer.phyHeaderChecker outgoingPackets:count 0
attr recordingmode count
attr source "merge(packetPushedOut, packetPulledOut)"
attr title "outgoing packets, count"
attr unit pk
scalar TargetNetwork.udp_switch.eth[1].phyLayer.phyHeaderChecker outgoingPacketLengths:sum 0
attr interpolationmode none
attr recordingmode sum
attr source "packetLength(merge(packetPushedOut, packetPulledOut))"
attr title "outgoing packet lengths, sum"
attr unit b
statistic TargetNetwork.udp_switch.eth[1].phyLayer.phyHeaderChecker outgoingPacketLengths:histogram
field count 0
field mean nan
field stddev nan
field min nan
field max nan
field sum 0
field sqrsum 0
attr interpolationmode none
attr recordingmode histogram
attr source "packetLength(merge(packetPushedOut, packetPulledOut))"
attr title "outgoing packet lengths"
attr unit b
bin	-inf	0
bin	0	0
bin	1	0
scalar TargetNetwork.udp_switch.eth[1].phyLayer.phyHeaderChecker flowOutgoingPacketLengths:sum 0
attr interpolationmode none
attr recordingmode sum
attr source "packetLength(demuxFlow(merge(packetPushedOut, packetPulledOut)))"
attr title "flow specific outgoing packet lengths, sum"
attr unit b
statistic TargetNetwork.udp_switch.eth[1].phyLayer.phyHeaderChecker flowOutgoingPacketLengths:histogram
field count 0
field mean nan
field stddev nan
field min nan
field max nan
field sum 0
field sqrsum 0
attr interpolationmode none
attr recordingmode histogram
attr source "packetLength(demuxFlow(merge(packetPushedOut, packetPulledOut)))"
attr title "flow specific outgoing packet lengths"
attr unit b
bin	-inf	0
bin	0	0
bin	1	0
scalar TargetNetwork.udp_switch.eth[1].phyLayer.phyHeaderChecker incomingPackets:count 0
attr recordingmode count
attr source "merge(packetPushedIn, packetPulledIn)"
attr title "incoming packets, count"
attr unit pk
scalar TargetNetwork.udp_switch.eth[1].phyLayer.phyHeaderChecker incomingPacketLengths:sum 0
attr interpolationmode none
attr recordingmode sum
attr source "packetLength(merge(packetPushedIn, packetPulledIn))"
attr title "incoming packet lengths, sum"
attr unit b
statistic TargetNetwork.udp_switch.eth[1].phyLayer.phyHeaderChecker incomingPacketLengths:histogram
field count 0
field mean nan
field stddev nan
field min nan
field max nan
field sum 0
field sqrsum 0
attr interpolationmode none
attr recordingmode histogram
attr source "packetLength(merge(packetPushedIn, packetPulledIn))"
attr title "incoming packet lengths"
attr unit b
bin	-inf	0
bin	0	0
bin	1	0
scalar TargetNetwork.udp_switch.eth[1].phyLayer.phyHeaderChecker flowIncomingPacketLengths:sum 0
attr interpolationmode none
attr recordingmode sum
attr source "packetLength(demuxFlow(merge(packetPushedIn, packetPulledIn)))"
attr title "flow specific incoming packet lengths, sum"
attr unit b
statistic TargetNetwork.udp_switch.eth[1].phyLayer.phyHeaderChecker flowIncomingPacketLengths:histogram
field count 0
field mean nan
field stddev nan
field min nan
field max nan
field sum 0
field sqrsum 0
attr interpolationmode none
attr recordingmode histogram
attr source "packetLength(demuxFlow(merge(packetPushedIn, packetPulledIn)))"
attr title "flow specific incoming packet lengths"
attr unit b
bin	-inf	0
bin	0	0
bin	1	0
scalar TargetNetwork.udp_switch.eth[1].phyLayer.phyHeaderChecker droppedPackets:count 0
attr recordingmode count
attr source packetDropped
attr title "dropped packets, count"
attr unit pk
scalar TargetNetwork.udp_switch.eth[1].phyLayer.phyHeaderChecker droppedPacketLengths:sum 0
attr interpolationmode none
attr recordingmode sum
attr source packetLength(packetDropped)
attr title "dropped packet lengths, sum"
attr unit b
statistic TargetNetwork.udp_switch.eth[1].phyLayer.phyHeaderChecker droppedPacketLengths:histogram
field count 0
field mean nan
field stddev nan
field min nan
field max nan
field sum 0
field sqrsum 0
attr interpolationmode none
attr recordingmode histogram
attr source packetLength(packetDropped)
attr title "dropped packet lengths"
attr unit b
bin	-inf	0
bin	0	0
bin	1	0
scalar TargetNetwork.udp_switch.eth[1].phyLayer.phyHeaderChecker flowDroppedPacketLengths:sum 0
attr interpolationmode none
attr recordingmode sum
attr source packetLength(demuxFlow(packetDropped))
attr title "flow specific dropped packet lengths, sum"
attr unit b
statistic TargetNetwork.udp_switch.eth[1].phyLayer.phyHeaderChecker flowDroppedPacketLengths:histogram
field count 0
field mean nan
field stddev nan
field min nan
field max nan
field sum 0
field sqrsum 0
attr interpolationmode none
attr recordingmode histogram
attr source packetLength(demuxFlow(packetDropped))
attr title "flow specific dropped packet lengths"
attr unit b
bin	-inf	0
bin	0	0
bin	1	0
par TargetNetwork.udp_switch.eth[1].phyLayer.inboundEmitter typename "\"inet.protocolelement.common.PacketEmitter\""
par TargetNetwork.udp_switch.eth[1].phyLayer.inboundEmitter displayStringTextFormat "\"processed %p pk (%l)\""
par TargetNetwork.udp_switch.eth[1].phyLayer.inboundEmitter packetFilter "(omnetpp::cValueHolder)holder: \"*\""
par TargetNetwork.udp_switch.eth[1].phyLayer.inboundEmitter direction "\"inbound\""
attr enum undefined,inbound,outbound
par TargetNetwork.udp_switch.eth[1].phyLayer.inboundEmitter signalName "\"packetReceivedFromLower\""
scalar TargetNetwork.udp_switch.eth[1].phyLayer.inboundEmitter outgoingPackets:count 0
attr recordingmode count
attr source "merge(packetPushedOut, packetPulledOut)"
attr title "outgoing packets, count"
attr unit pk
scalar TargetNetwork.udp_switch.eth[1].phyLayer.inboundEmitter outgoingPacketLengths:sum 0
attr interpolationmode none
attr recordingmode sum
attr source "packetLength(merge(packetPushedOut, packetPulledOut))"
attr title "outgoing packet lengths, sum"
attr unit b
statistic TargetNetwork.udp_switch.eth[1].phyLayer.inboundEmitter outgoingPacketLengths:histogram
field count 0
field mean nan
field stddev nan
field min nan
field max nan
field sum 0
field sqrsum 0
attr interpolationmode none
attr recordingmode histogram
attr source "packetLength(merge(packetPushedOut, packetPulledOut))"
attr title "outgoing packet lengths"
attr unit b
bin	-inf	0
bin	0	0
bin	1	0
scalar TargetNetwork.udp_switch.eth[1].phyLayer.inboundEmitter flowOutgoingPacketLengths:sum 0
attr interpolationmode none
attr recordingmode sum
attr source "packetLength(demuxFlow(merge(packetPushedOut, packetPulledOut)))"
attr title "flow specific outgoing packet lengths, sum"
attr unit b
statistic TargetNetwork.udp_switch.eth[1].phyLayer.inboundEmitter flowOutgoingPacketLengths:histogram
field count 0
field mean nan
field stddev nan
field min nan
field max nan
field sum 0
field sqrsum 0
attr interpolationmode none
attr recordingmode histogram
attr source "packetLength(demuxFlow(merge(packetPushedOut, packetPulledOut)))"
attr title "flow specific outgoing packet lengths"
attr unit b
bin	-inf	0
bin	0	0
bin	1	0
scalar TargetNetwork.udp_switch.eth[1].phyLayer.inboundEmitter incomingPackets:count 0
attr recordingmode count
attr source "merge(packetPushedIn, packetPulledIn)"
attr title "incoming packets, count"
attr unit pk
scalar TargetNetwork.udp_switch.eth[1].phyLayer.inboundEmitter incomingPacketLengths:sum 0
attr interpolationmode none
attr recordingmode sum
attr source "packetLength(merge(packetPushedIn, packetPulledIn))"
attr title "incoming packet lengths, sum"
attr unit b
statistic TargetNetwork.udp_switch.eth[1].phyLayer.inboundEmitter incomingPacketLengths:histogram
field count 0
field mean nan
field stddev nan
field min nan
field max nan
field sum 0
field sqrsum 0
attr interpolationmode none
attr recordingmode histogram
attr source "packetLength(merge(packetPushedIn, packetPulledIn))"
attr title "incoming packet lengths"
attr unit b
bin	-inf	0
bin	0	0
bin	1	0
scalar TargetNetwork.udp_switch.eth[1].phyLayer.inboundEmitter flowIncomingPacketLengths:sum 0
attr interpolationmode none
attr recordingmode sum
attr source "packetLength(demuxFlow(merge(packetPushedIn, packetPulledIn)))"
attr title "flow specific incoming packet lengths, sum"
attr unit b
statistic TargetNetwork.udp_switch.eth[1].phyLayer.inboundEmitter flowIncomingPacketLengths:histogram
field count 0
field mean nan
field stddev nan
field min nan
field max nan
field sum 0
field sqrsum 0
attr interpolationmode none
attr recordingmode histogram
attr source "packetLength(demuxFlow(merge(packetPushedIn, packetPulledIn)))"
attr title "flow specific incoming packet lengths"
attr unit b
bin	-inf	0
bin	0	0
bin	1	0
par TargetNetwork.udp_switch.eth[1].phyLayer.receiver typename "\"inet.protocolelement.transceiver.PacketReceiver\""
par TargetNetwork.udp_switch.eth[1].phyLayer.receiver displayStringTextFormat "\"processed %p pk (%l)\""
par TargetNetwork.udp_switch.eth[1].phyLayer.receiver datarate 1e+08bps
attr unit bps
statistic TargetNetwork.udp_switch.eth[1].phyLayer.receiver receptionTime:histogram
field count 0
field mean nan
field stddev nan
field min nan
field max nan
field sum 0
field sqrsum 0
attr interpolationmode none
attr recordingmode histogram
attr source packetDuration(receptionEnded)
attr title "reception time"
attr unit s
bin	-inf	0
bin	0	0
bin	1	0
statistic TargetNetwork.udp_switch.eth[1].phyLayer.receiver flowReceptionTime:histogram
field count 0
field mean nan
field stddev nan
field min nan
field max nan
field sum 0
field sqrsum 0
attr interpolationmode none
attr recordingmode histogram
attr source packetDuration(demuxFlow(receptionEnded))
attr title "flow reception time"
attr unit s
bin	-inf	0
bin	0	0
bin	1	0
par TargetNetwork.udp_switch.eth[1].phyLayer typename "\"inet.physicallayer.wired.ethernet.EthernetPhyLayer\""
par TargetNetwork.udp_switch.eth[1].phyLayer bitrate this.bitrate
attr unit bps
par TargetNetwork.udp_switch.eth[1] typename "\"inet.linklayer.ethernet.LayeredEthernetInterface\""
par TargetNetwork.udp_switch.eth[1] displayStringTextFormat "\"%a (%i)\\n%m\""
par TargetNetwork.udp_switch.eth[1] recordPcap false
par TargetNetwork.udp_switch.eth[1] numPcapRecorders 0
par TargetNetwork.udp_switch.eth[1] protocol "\"ethernetmac\""
par TargetNetwork.udp_switch.eth[1] broadcast true
par TargetNetwork.udp_switch.eth[1] multicast true
par TargetNetwork.udp_switch.eth[1] address "\"0A-AA-00-00-00-04\""
attr mutable ""
par TargetNetwork.udp_switch.eth[1] bitrate 1e+08bps
attr unit bps
par TargetNetwork.udp_switch.eth[1] mtu 1500B
attr unit B
par TargetNetwork.udp_switch.eth[1] interfaceTableModule "\"TargetNetwork.udp_switch.interfaceTable\""
scalar TargetNetwork.udp_switch.eth[1] packetDropInterfaceDown:count 0
attr interpolationmode none
attr recordingmode count
attr source packetDropReasonIsInterfaceDown(packetDropped)
attr title "packet drops: interface down, count"
scalar TargetNetwork.udp_switch.eth[1] packetDropInterfaceDown:sum(packetBytes) 0
attr interpolationmode none
attr recordingmode sum(packetBytes)
attr source packetDropReasonIsInterfaceDown(packetDropped)
attr title "packet drops: interface down, sum(packetBytes)"
scalar TargetNetwork.udp_switch.eth[1] packetDropNoCarrier:count 0
attr interpolationmode none
attr recordingmode count
attr source packetDropReasonIsNoCarrier(packetDropped)
attr title "packet drops: no carrier, count"
scalar TargetNetwork.udp_switch.eth[1] packetDropNoCarrier:sum(packetBytes) 0
attr interpolationmode none
attr recordingmode sum(packetBytes)
attr source packetDropReasonIsNoCarrier(packetDropped)
attr title "packet drops: no carrier, sum(packetBytes)"
par TargetNetwork.udp_switch typename "\"inet.node.ethernet.EthernetSwitch\""
par TargetNetwork.udp_switch recordPcap false
par TargetNetwork.udp_switch numPcapRecorders 0
par TargetNetwork.udp_switch numApps 0
par TargetNetwork.udp_switch hasStatus false
par TargetNetwork.udp_switch hasStp false
par TargetNetwork.udp_switch hasGptp false
par TargetNetwork.udp_switch hasCutthroughSwitching false
par TargetNetwork.udp_switch fcsMode "\"declared\""
attr enum declared,computed
par TargetNetwork.udp_switch spanningTreeProtocol "\"Stp\""
par TargetNetwork.udp_switch numEthInterfaces 0
par TargetNetwork typename "\"TargetNetwork\""
par TargetNetwork recordPcap false
par TargetNetwork numPcapRecorders 0
par TargetNetwork hasGlobalArp true

