version 3
run General-0-20241110-18:03:09-18960
attr configname General
attr datetime 20241110-18:03:09
attr datetimef 20241110-180309
attr experiment General
attr inifile D:/jobSimQt/project/Parameters.ini
attr iterationvars ""
attr iterationvarsd ""
attr iterationvarsf ""
attr measurement ""
attr network TargetNetwork
attr processid 18960
attr repetition 0
attr replication #0
attr resultdir results
attr runnumber 0
attr seedset 0
config network TargetNetwork
config sim-time-limit 1.0s
config **.statistic-recording false
config *.*.ethernet.typename EthernetLayer
config *.*.eth[*].typename LayeredEthernetInterface
config *.*.eth[*].bitrate 100Mbps
config **.eth[*].queue.typename DropTailQueue
config **.eth[*].queue.packetCapacity 20
config **.forwarding false
config **.arp.retryTimeout 1s
config **.arp.retryCount 3
config **.arp.cacheTimeout 100s
config **.tcp.tcpAlgorithmClass "\"TcpReno\""
config **.tcp.typename Tcp
config **.tcp.advertisedWindow 65535
config **.tcp.delayedAcksEnabled false
config **.tcp.nagleEnabled true
config **.tcp.limitedTransmitEnabled false
config **.tcp.increasedIWEnabled false
config **.tcp.sackSupport false
config **.tcp.windowScalingSupport false
config **.tcp.timestampSupport false
config **.tcp.mss 1452
config *.configurator.config "xml(\"<config><interface hosts='**' address='192.x.x.x' netmask='255.x.x.x'/></config>\")"
config *.tsn.numApps 1
config *.tsn.app[0].typename UdpApp615
config *.tsn.app[0].source.packetLength 1000B
config *.tsn.app[0].source.productionInterval exponential(100us)
config *.tsn.app[0].io.destAddress "\"tsn3\""
config *.tsn.app[0].io.destPort 1000
config *.tsn.app[0].sink.typename ""
config *.tsn.hasOutgoingStreams true
config *.tsn.bridging.streamIdentifier.identifier.mapping "[{stream: \"best-effort\", packetfilter: expr(udp.destPort == 1000)}]"
config *.tsn.bridging.streamCoder.encoder.mapping "[{stream: \"best-effort\", pcp: 0},{stream: \"time-triggered\", pcp: 4},{stream: \"ack\", pcp: 5}]"
config *.tsn2.numApps 1
config *.tsn2.app[0].typename TcpSessionApp
config *.tsn2.app[0].sendBytes 100MiB
config *.tsn2.app[0].active true
config *.tsn2.app[0].localPort 1000
config *.tsn2.app[0].connectAddress "\"tsn3\""
config *.tsn2.app[0].connectPort 1002
config *.tsn2.app[0].tOpen 0s
config *.tsn2.app[0].tSend 0s
config *.tsn2.app[0].tClose 0s
config *.tsn2.app[0].sendScript "\"\""
config *.tsn2.hasOutgoingStreams true
config *.tsn2.bridging.streamIdentifier.identifier.mapping "[{stream: \"time-triggered\", packetfilter: expr(tcp.destPort == 1002)}]"
config *.tsn2.bridging.streamCoder.encoder.mapping "[{stream: \"best-effort\", pcp: 0},{stream: \"time-triggered\", pcp: 4},{stream: \"ack\", pcp: 5}]"
config *.tsn3.numApps 2
config *.tsn3.app[0].typename UdpApp615
config *.tsn3.app[0].source.typename ""
config *.tsn3.app[0].io.destPort -1
config *.tsn3.app[0].io.localPort 1000
config *.tsn3.app[0].sink.flowName "\"BE_testflow\""
config *.tsn3.app[1].typename TcpSinkApp
config *.tsn3.app[1].localPort 1002
config *.tsn3.app[1].flowName "\"TT_testflow\""
config *.tsn3.hasOutgoingStreams true
config *.tsn3.bridging.streamCoder.encoder.mapping "[{stream: \"best-effort\", pcp: 0},{stream: \"time-triggered\", pcp: 4},{stream: \"ack\", pcp: 5}]"
config *.tsn_switch.eth[*].bitrate 100Mbps
config *.tsn_switch.hasEgressTrafficShaping true
config *.tsn_switch.bridging.directionReverser.reverser.excludeEncapsulationProtocols "[\"ieee8021qctag\"]"
config *.tsn_switch.eth[*].macLayer.queue.numTrafficClasses 2
config *.tsn_switch.eth[*].macLayer.queue.*[0].display-name best-effort
config *.tsn_switch.eth[*].macLayer.queue.transmissionGate[0].offset 0ms
config *.tsn_switch.eth[*].macLayer.queue.transmissionGate[0].durations "[1ms, 1ms, 0.1ms, 1.9ms]"
config *.tsn_switch.eth[*].macLayer.queue.transmissionGate[0].initiallyOpen false
config *.tsn_switch.eth[*].macLayer.queue.queue[0].packetCapacity 100
config *.tsn_switch.eth[*].macLayer.queue.*[1].display-name time-triggered
config *.tsn_switch.eth[*].macLayer.queue.transmissionGate[1].offset 0ms
config *.tsn_switch.eth[*].macLayer.queue.transmissionGate[1].durations [1ms,1ms]
config *.tsn_switch.eth[*].macLayer.queue.transmissionGate[1].initiallyOpen true
config *.tsn_switch.eth[*].macLayer.queue.queue[1].packetCapacity 100

par TargetNetwork.tsn.ethg$o[0].channel typename "\"ned.DatarateChannel\""
par TargetNetwork.tsn.ethg$o[0].channel disabled false
attr mutable ""
par TargetNetwork.tsn.ethg$o[0].channel delay 0s
attr mutable ""
attr unit s
par TargetNetwork.tsn.ethg$o[0].channel datarate 1e+08bps
attr mutable ""
attr unit bps
par TargetNetwork.tsn.ethg$o[0].channel ber 0
attr mutable ""
par TargetNetwork.tsn.ethg$o[0].channel per 0
attr mutable ""
par TargetNetwork.tsn_switch.ethg$o[0].channel typename "\"ned.DatarateChannel\""
par TargetNetwork.tsn_switch.ethg$o[0].channel disabled false
attr mutable ""
par TargetNetwork.tsn_switch.ethg$o[0].channel delay 0s
attr mutable ""
attr unit s
par TargetNetwork.tsn_switch.ethg$o[0].channel datarate 1e+08bps
attr mutable ""
attr unit bps
par TargetNetwork.tsn_switch.ethg$o[0].channel ber 0
attr mutable ""
par TargetNetwork.tsn_switch.ethg$o[0].channel per 0
attr mutable ""
par TargetNetwork.tsn_switch.ethg$o[1].channel typename "\"ned.DatarateChannel\""
par TargetNetwork.tsn_switch.ethg$o[1].channel disabled false
attr mutable ""
par TargetNetwork.tsn_switch.ethg$o[1].channel delay 0s
attr mutable ""
attr unit s
par TargetNetwork.tsn_switch.ethg$o[1].channel datarate 1e+08bps
attr mutable ""
attr unit bps
par TargetNetwork.tsn_switch.ethg$o[1].channel ber 0
attr mutable ""
par TargetNetwork.tsn_switch.ethg$o[1].channel per 0
attr mutable ""
par TargetNetwork.tsn2.ethg$o[0].channel typename "\"ned.DatarateChannel\""
par TargetNetwork.tsn2.ethg$o[0].channel disabled false
attr mutable ""
par TargetNetwork.tsn2.ethg$o[0].channel delay 0s
attr mutable ""
attr unit s
par TargetNetwork.tsn2.ethg$o[0].channel datarate 1e+08bps
attr mutable ""
attr unit bps
par TargetNetwork.tsn2.ethg$o[0].channel ber 0
attr mutable ""
par TargetNetwork.tsn2.ethg$o[0].channel per 0
attr mutable ""
par TargetNetwork.tsn_switch.ethg$o[2].channel typename "\"ned.DatarateChannel\""
par TargetNetwork.tsn_switch.ethg$o[2].channel disabled false
attr mutable ""
par TargetNetwork.tsn_switch.ethg$o[2].channel delay 0s
attr mutable ""
attr unit s
par TargetNetwork.tsn_switch.ethg$o[2].channel datarate 1e+08bps
attr mutable ""
attr unit bps
par TargetNetwork.tsn_switch.ethg$o[2].channel ber 0
attr mutable ""
par TargetNetwork.tsn_switch.ethg$o[2].channel per 0
attr mutable ""
par TargetNetwork.tsn3.ethg$o[0].channel typename "\"ned.DatarateChannel\""
par TargetNetwork.tsn3.ethg$o[0].channel disabled false
attr mutable ""
par TargetNetwork.tsn3.ethg$o[0].channel delay 0s
attr mutable ""
attr unit s
par TargetNetwork.tsn3.ethg$o[0].channel datarate 1e+08bps
attr mutable ""
attr unit bps
par TargetNetwork.tsn3.ethg$o[0].channel ber 0
attr mutable ""
par TargetNetwork.tsn3.ethg$o[0].channel per 0
attr mutable ""
par TargetNetwork.visualizer.sceneVisualizer typename "\"inet.visualizer.canvas.scene.SceneCanvasVisualizer\""
par TargetNetwork.visualizer.sceneVisualizer visualizationTargetModule "\"^.^\""
par TargetNetwork.visualizer.sceneVisualizer visualizationSubjectModule "\"^.^\""
par TargetNetwork.visualizer.sceneVisualizer tags "\"\""
par TargetNetwork.visualizer.sceneVisualizer physicalEnvironmentModule "\"physicalEnvironment\""
par TargetNetwork.visualizer.sceneVisualizer networkNodeVisualizerModule "\"^.networkNodeVisualizer\""
par TargetNetwork.visualizer.sceneVisualizer axisLength "nan m"
attr mutable ""
attr unit m
par TargetNetwork.visualizer.sceneVisualizer animationSpeed 0
par TargetNetwork.visualizer.sceneVisualizer sceneMinX "nan m"
attr unit m
par TargetNetwork.visualizer.sceneVisualizer sceneMinY "nan m"
attr unit m
par TargetNetwork.visualizer.sceneVisualizer sceneMinZ "nan m"
attr unit m
par TargetNetwork.visualizer.sceneVisualizer sceneMaxX "nan m"
attr unit m
par TargetNetwork.visualizer.sceneVisualizer sceneMaxY "nan m"
attr unit m
par TargetNetwork.visualizer.sceneVisualizer sceneMaxZ "nan m"
attr unit m
par TargetNetwork.visualizer.sceneVisualizer zIndex 0
par TargetNetwork.visualizer.sceneVisualizer viewAngle "\"x right y down z out\""
attr mutable ""
par TargetNetwork.visualizer.sceneVisualizer viewScale "\"1 1\""
attr mutable ""
par TargetNetwork.visualizer.sceneVisualizer viewTranslation "\"0 0\""
attr mutable ""
par TargetNetwork.visualizer.sceneVisualizer descriptionFigure "\"\""
par TargetNetwork.visualizer.physicalEnvironmentVisualizer typename "\"inet.visualizer.canvas.environment.PhysicalEnvironmentCanvasVisualizer\""
par TargetNetwork.visualizer.physicalEnvironmentVisualizer visualizationTargetModule "\"^.^\""
par TargetNetwork.visualizer.physicalEnvironmentVisualizer visualizationSubjectModule "\"^.^\""
par TargetNetwork.visualizer.physicalEnvironmentVisualizer tags "\"\""
par TargetNetwork.visualizer.physicalEnvironmentVisualizer physicalEnvironmentModule "\"physicalEnvironment\""
par TargetNetwork.visualizer.physicalEnvironmentVisualizer displayObjects true
par TargetNetwork.visualizer.physicalEnvironmentVisualizer zIndex 0
par TargetNetwork.visualizer.networkNodeVisualizer typename "\"inet.visualizer.canvas.scene.NetworkNodeCanvasVisualizer\""
par TargetNetwork.visualizer.networkNodeVisualizer visualizationTargetModule "\"^.^\""
par TargetNetwork.visualizer.networkNodeVisualizer visualizationSubjectModule "\"^.^\""
par TargetNetwork.visualizer.networkNodeVisualizer tags "\"\""
par TargetNetwork.visualizer.networkNodeVisualizer nodeFilter "\"*\""
attr mutable ""
par TargetNetwork.visualizer.networkNodeVisualizer annotationSpacing 4
par TargetNetwork.visualizer.networkNodeVisualizer placementPenalty 10
par TargetNetwork.visualizer.networkNodeVisualizer zIndex 0
par TargetNetwork.visualizer.networkConnectionVisualizer typename "\"inet.visualizer.canvas.scene.NetworkConnectionCanvasVisualizer\""
par TargetNetwork.visualizer.networkConnectionVisualizer visualizationTargetModule "\"^.^\""
par TargetNetwork.visualizer.networkConnectionVisualizer visualizationSubjectModule "\"^.^\""
par TargetNetwork.visualizer.networkConnectionVisualizer tags "\"\""
par TargetNetwork.visualizer.networkConnectionVisualizer displayNetworkConnections true
par TargetNetwork.visualizer.networkConnectionVisualizer nodeFilter "\"\""
attr mutable ""
par TargetNetwork.visualizer.networkConnectionVisualizer lineColor "\"black\""
par TargetNetwork.visualizer.networkConnectionVisualizer lineStyle "\"solid\""
par TargetNetwork.visualizer.networkConnectionVisualizer lineWidth 1
par TargetNetwork.visualizer.networkConnectionVisualizer zIndex 0
par TargetNetwork.visualizer.mobilityVisualizer typename "\"inet.visualizer.canvas.mobility.MobilityCanvasVisualizer\""
par TargetNetwork.visualizer.mobilityVisualizer visualizationTargetModule "\"^.^\""
par TargetNetwork.visualizer.mobilityVisualizer visualizationSubjectModule "\"^.^\""
par TargetNetwork.visualizer.mobilityVisualizer tags "\"\""
par TargetNetwork.visualizer.mobilityVisualizer networkNodeVisualizerModule "\"^.networkNodeVisualizer\""
par TargetNetwork.visualizer.mobilityVisualizer displayMobility true
par TargetNetwork.visualizer.mobilityVisualizer animationSpeed 0
par TargetNetwork.visualizer.mobilityVisualizer moduleFilter "\"**.mobility\""
attr mutable ""
par TargetNetwork.visualizer.mobilityVisualizer displayPositions false
par TargetNetwork.visualizer.mobilityVisualizer positionCircleRadius 4
par TargetNetwork.visualizer.mobilityVisualizer positionCircleLineWidth 1
par TargetNetwork.visualizer.mobilityVisualizer positionCircleLineColor "\"dark\""
attr enum light,dark
par TargetNetwork.visualizer.mobilityVisualizer positionCircleFillColor "\"dark\""
attr enum light,dark
par TargetNetwork.visualizer.mobilityVisualizer displayOrientations false
par TargetNetwork.visualizer.mobilityVisualizer orientationPieRadius 32
par TargetNetwork.visualizer.mobilityVisualizer orientationPieSize 0.2
par TargetNetwork.visualizer.mobilityVisualizer orientationPieOpacity 0.25
par TargetNetwork.visualizer.mobilityVisualizer orientationLineColor "\"black\""
par TargetNetwork.visualizer.mobilityVisualizer orientationLineStyle "\"solid\""
par TargetNetwork.visualizer.mobilityVisualizer orientationLineWidth 1
par TargetNetwork.visualizer.mobilityVisualizer orientationFillColor "\"blue\""
par TargetNetwork.visualizer.mobilityVisualizer displayVelocities false
par TargetNetwork.visualizer.mobilityVisualizer velocityArrowScale 1
par TargetNetwork.visualizer.mobilityVisualizer velocityLineColor "\"black\""
par TargetNetwork.visualizer.mobilityVisualizer velocityLineStyle "\"solid\""
par TargetNetwork.visualizer.mobilityVisualizer velocityLineWidth 1
par TargetNetwork.visualizer.mobilityVisualizer displayMovementTrails false
par TargetNetwork.visualizer.mobilityVisualizer movementTrailLineColor "\"dark\""
attr enum light,dark
par TargetNetwork.visualizer.mobilityVisualizer movementTrailLineStyle "\"solid\""
par TargetNetwork.visualizer.mobilityVisualizer movementTrailLineWidth 1
par TargetNetwork.visualizer.mobilityVisualizer trailLength 100
par TargetNetwork.visualizer.mobilityVisualizer zIndex 0
par TargetNetwork.visualizer.statisticVisualizer typename "\"inet.visualizer.canvas.common.StatisticCanvasVisualizer\""
par TargetNetwork.visualizer.statisticVisualizer visualizationTargetModule "\"^.^\""
par TargetNetwork.visualizer.statisticVisualizer visualizationSubjectModule "\"^.^\""
par TargetNetwork.visualizer.statisticVisualizer tags "\"\""
par TargetNetwork.visualizer.statisticVisualizer networkNodeVisualizerModule "\"^.networkNodeVisualizer\""
par TargetNetwork.visualizer.statisticVisualizer displayStatistics true
par TargetNetwork.visualizer.statisticVisualizer signalName "\"\""
par TargetNetwork.visualizer.statisticVisualizer statisticName "\"\""
par TargetNetwork.visualizer.statisticVisualizer statisticUnit "\"\""
par TargetNetwork.visualizer.statisticVisualizer statisticExpression "\"\""
par TargetNetwork.visualizer.statisticVisualizer sourceFilter "\"**\""
attr mutable ""
par TargetNetwork.visualizer.statisticVisualizer format "\"%n: %v %u\""
attr mutable ""
par TargetNetwork.visualizer.statisticVisualizer unit "\"\""
par TargetNetwork.visualizer.statisticVisualizer font "\"<default>\""
par TargetNetwork.visualizer.statisticVisualizer textColor "\"black\""
par TargetNetwork.visualizer.statisticVisualizer backgroundColor "\"white\""
par TargetNetwork.visualizer.statisticVisualizer opacity 1
par TargetNetwork.visualizer.statisticVisualizer placementHint "\"top\""
par TargetNetwork.visualizer.statisticVisualizer placementPriority 0
par TargetNetwork.visualizer.statisticVisualizer zIndex 10
par TargetNetwork.visualizer.statisticVisualizer propertyName "\"\""
par TargetNetwork.visualizer.statisticVisualizer propertyIndex "\"\""
par TargetNetwork.visualizer.infoVisualizer typename "\"inet.visualizer.canvas.common.InfoCanvasVisualizer\""
par TargetNetwork.visualizer.infoVisualizer visualizationTargetModule "\"^.^\""
par TargetNetwork.visualizer.infoVisualizer visualizationSubjectModule "\"^.^\""
par TargetNetwork.visualizer.infoVisualizer tags "\"\""
par TargetNetwork.visualizer.infoVisualizer networkNodeVisualizerModule "\"^.networkNodeVisualizer\""
par TargetNetwork.visualizer.infoVisualizer displayInfos true
par TargetNetwork.visualizer.infoVisualizer modules "\"\""
attr mutable ""
par TargetNetwork.visualizer.infoVisualizer format "\"%t\""
attr mutable ""
par TargetNetwork.visualizer.infoVisualizer font "\"<default>\""
par TargetNetwork.visualizer.infoVisualizer textColor "\"black\""
par TargetNetwork.visualizer.infoVisualizer backgroundColor "\"white\""
par TargetNetwork.visualizer.infoVisualizer opacity 1
par TargetNetwork.visualizer.infoVisualizer placementHint "\"top\""
par TargetNetwork.visualizer.infoVisualizer placementPriority 0
par TargetNetwork.visualizer.infoVisualizer zIndex 10
par TargetNetwork.visualizer.energyStorageVisualizer typename "\"inet.visualizer.canvas.power.EnergyStorageCanvasVisualizer\""
par TargetNetwork.visualizer.energyStorageVisualizer visualizationTargetModule "\"^.^\""
par TargetNetwork.visualizer.energyStorageVisualizer visualizationSubjectModule "\"^.^\""
par TargetNetwork.visualizer.energyStorageVisualizer tags "\"\""
par TargetNetwork.visualizer.energyStorageVisualizer networkNodeVisualizerModule "\"^.networkNodeVisualizer\""
par TargetNetwork.visualizer.energyStorageVisualizer displayEnergyStorages false
par TargetNetwork.visualizer.energyStorageVisualizer energyStorageFilter "\"**\""
par TargetNetwork.visualizer.energyStorageVisualizer color "\"green\""
par TargetNetwork.visualizer.energyStorageVisualizer width 8
par TargetNetwork.visualizer.energyStorageVisualizer height 24
par TargetNetwork.visualizer.energyStorageVisualizer spacing 2
par TargetNetwork.visualizer.energyStorageVisualizer placementHint "\"right\""
par TargetNetwork.visualizer.energyStorageVisualizer placementPriority 0
par TargetNetwork.visualizer.energyStorageVisualizer zIndex 10
par TargetNetwork.visualizer.mediumVisualizer typename "\"inet.visualizer.canvas.physicallayer.MediumCanvasVisualizer\""
par TargetNetwork.visualizer.mediumVisualizer visualizationTargetModule "\"^.^\""
par TargetNetwork.visualizer.mediumVisualizer visualizationSubjectModule "\"^.^\""
par TargetNetwork.visualizer.mediumVisualizer tags "\"\""
par TargetNetwork.visualizer.mediumVisualizer mediumModule "\"radioMedium\""
par TargetNetwork.visualizer.mediumVisualizer networkNodeVisualizerModule "\"^.networkNodeVisualizer\""
par TargetNetwork.visualizer.mediumVisualizer nodeFilter "\"*\""
attr mutable ""
par TargetNetwork.visualizer.mediumVisualizer interfaceFilter "\"*\""
attr mutable ""
par TargetNetwork.visualizer.mediumVisualizer packetFilter "(omnetpp::cValueHolder)holder: \"*\""
attr mutable ""
par TargetNetwork.visualizer.mediumVisualizer displaySignals false
par TargetNetwork.visualizer.mediumVisualizer signalColor "\"dark\""
attr enum light,dark
par TargetNetwork.visualizer.mediumVisualizer signalPropagationAnimationSpeed "nan "
attr mutable ""
par TargetNetwork.visualizer.mediumVisualizer signalPropagationAnimationTime 1s
attr unit s
par TargetNetwork.visualizer.mediumVisualizer signalPropagationAdditionalTime 0s
attr unit s
par TargetNetwork.visualizer.mediumVisualizer signalTransmissionAnimationSpeed "nan "
attr mutable ""
par TargetNetwork.visualizer.mediumVisualizer signalTransmissionAnimationTime 1s
attr unit s
par TargetNetwork.visualizer.mediumVisualizer signalAnimationSpeedChangeTimeMode "\"realTime\""
attr enum realTime,animationTime,simulationTime
par TargetNetwork.visualizer.mediumVisualizer signalAnimationSpeedChangeTime 1s
attr unit s
par TargetNetwork.visualizer.mediumVisualizer displaySignalDepartures false
par TargetNetwork.visualizer.mediumVisualizer signalDepartureImage "\"misc/signal_departure.png\""
par TargetNetwork.visualizer.mediumVisualizer signalDeparturePlacementHint "\"topCenter\""
par TargetNetwork.visualizer.mediumVisualizer signalDeparturePlacementPriority 1
par TargetNetwork.visualizer.mediumVisualizer displaySignalArrivals false
par TargetNetwork.visualizer.mediumVisualizer signalArrivalImage "\"misc/signal_arrival.png\""
par TargetNetwork.visualizer.mediumVisualizer signalArrivalPlacementHint "\"topCenter\""
par TargetNetwork.visualizer.mediumVisualizer signalArrivalPlacementPriority -1
par TargetNetwork.visualizer.mediumVisualizer displayCommunicationRanges false
par TargetNetwork.visualizer.mediumVisualizer communicationRangeLineColor "\"blue\""
par TargetNetwork.visualizer.mediumVisualizer communicationRangeLineStyle "\"solid\""
par TargetNetwork.visualizer.mediumVisualizer communicationRangeLineWidth 1
par TargetNetwork.visualizer.mediumVisualizer displayInterferenceRanges false
par TargetNetwork.visualizer.mediumVisualizer interferenceRangeLineColor "\"gray\""
par TargetNetwork.visualizer.mediumVisualizer interferenceRangeLineStyle "\"solid\""
par TargetNetwork.visualizer.mediumVisualizer interferenceRangeLineWidth 1
par TargetNetwork.visualizer.mediumVisualizer autoPowerAxis true
par TargetNetwork.visualizer.mediumVisualizer signalMinPower "inf dBmW"
attr unit dBmW
par TargetNetwork.visualizer.mediumVisualizer signalMaxPower 0dBmW
attr unit dBmW
par TargetNetwork.visualizer.mediumVisualizer signalMinPowerDensity "inf dBmWpMHz"
attr unit dBmWpMHz
par TargetNetwork.visualizer.mediumVisualizer signalMaxPowerDensity "-inf dBmWpMHz"
attr unit dBmWpMHz
par TargetNetwork.visualizer.mediumVisualizer autoTimeAxis true
par TargetNetwork.visualizer.mediumVisualizer signalMinTime 0s
attr unit s
par TargetNetwork.visualizer.mediumVisualizer signalMaxTime 0s
attr unit s
par TargetNetwork.visualizer.mediumVisualizer autoFrequencyAxis true
par TargetNetwork.visualizer.mediumVisualizer signalMinFrequency "inf Hz"
attr unit Hz
par TargetNetwork.visualizer.mediumVisualizer signalMaxFrequency "-inf Hz"
attr unit Hz
par TargetNetwork.visualizer.mediumVisualizer displayMainPowerDensityMap false
par TargetNetwork.visualizer.mediumVisualizer mainPowerDensityMapPixmapDensity 1
par TargetNetwork.visualizer.mediumVisualizer mainPowerDensityMapMinX 0
par TargetNetwork.visualizer.mediumVisualizer mainPowerDensityMapMaxX "nan "
par TargetNetwork.visualizer.mediumVisualizer mainPowerDensityMapMinY 0
par TargetNetwork.visualizer.mediumVisualizer mainPowerDensityMapMaxY "nan "
par TargetNetwork.visualizer.mediumVisualizer mainPowerDensityMapZ 0
par TargetNetwork.visualizer.mediumVisualizer mainPowerDensityMapFigureXTickCount 3
par TargetNetwork.visualizer.mediumVisualizer mainPowerDensityMapFigureYTickCount 3
par TargetNetwork.visualizer.mediumVisualizer displayPowerDensityMaps false
par TargetNetwork.visualizer.mediumVisualizer powerDensityMapMode "\"auto\""
attr enum total,signal,auto
par TargetNetwork.visualizer.mediumVisualizer powerDensityMapPixelMode "\"mean\""
attr enum sample,partition,mean
par TargetNetwork.visualizer.mediumVisualizer powerDensityMapApproximationSize 10
par TargetNetwork.visualizer.mediumVisualizer powerDensityMapCenterFrequency "nan Hz"
attr mutable ""
attr unit Hz
par TargetNetwork.visualizer.mediumVisualizer powerDensityMapBandwidth 0Hz
attr mutable ""
attr unit Hz
par TargetNetwork.visualizer.mediumVisualizer powerDensityMapFigureWidth 200
par TargetNetwork.visualizer.mediumVisualizer powerDensityMapFigureHeight 120
par TargetNetwork.visualizer.mediumVisualizer powerDensityMapPixmapWidth 200
par TargetNetwork.visualizer.mediumVisualizer powerDensityMapPixmapHeight 120
par TargetNetwork.visualizer.mediumVisualizer powerDensityMapZ 0
par TargetNetwork.visualizer.mediumVisualizer powerDensityMapFigureXTickCount 3
par TargetNetwork.visualizer.mediumVisualizer powerDensityMapFigureYTickCount 3
par TargetNetwork.visualizer.mediumVisualizer displaySpectrums false
par TargetNetwork.visualizer.mediumVisualizer spectrumMode "\"auto\""
attr enum total,signal,auto
par TargetNetwork.visualizer.mediumVisualizer spectrumFigureWidth 200
par TargetNetwork.visualizer.mediumVisualizer spectrumFigureHeight 120
par TargetNetwork.visualizer.mediumVisualizer spectrumFigureXTickCount 3
par TargetNetwork.visualizer.mediumVisualizer spectrumFigureYTickCount 5
par TargetNetwork.visualizer.mediumVisualizer spectrumFigureInterpolationSize 5
par TargetNetwork.visualizer.mediumVisualizer spectrumPlacementHint "\"bottomCenter\""
par TargetNetwork.visualizer.mediumVisualizer spectrumPlacementPriority -1
par TargetNetwork.visualizer.mediumVisualizer displaySpectrograms false
par TargetNetwork.visualizer.mediumVisualizer spectrogramMode "\"auto\""
attr enum total,signal,auto
par TargetNetwork.visualizer.mediumVisualizer spectrogramPixelMode "\"mean\""
attr enum sample,partition,mean
par TargetNetwork.visualizer.mediumVisualizer spectrogramFigureWidth 200
par TargetNetwork.visualizer.mediumVisualizer spectrogramFigureHeight 120
par TargetNetwork.visualizer.mediumVisualizer spectrogramPixmapWidth 200
par TargetNetwork.visualizer.mediumVisualizer spectrogramPixmapHeight 120
par TargetNetwork.visualizer.mediumVisualizer spectrogramFigureXTickCount 3
par TargetNetwork.visualizer.mediumVisualizer spectrogramFigureYTickCount 5
par TargetNetwork.visualizer.mediumVisualizer spectrogramPlacementHint "\"bottomCenter\""
par TargetNetwork.visualizer.mediumVisualizer spectrogramPlacementPriority -1
par TargetNetwork.visualizer.mediumVisualizer zIndex 0
par TargetNetwork.visualizer.mediumVisualizer signalShape "\"ring\""
attr enum ring,sphere
par TargetNetwork.visualizer.mediumVisualizer signalOpacity 0.5
par TargetNetwork.visualizer.mediumVisualizer signalRingCount 20
par TargetNetwork.visualizer.mediumVisualizer signalRingSize 50m
attr unit m
par TargetNetwork.visualizer.mediumVisualizer signalFadingDistance 50m
attr unit m
par TargetNetwork.visualizer.mediumVisualizer signalFadingFactor 1.2
par TargetNetwork.visualizer.mediumVisualizer signalWaveCount 20
par TargetNetwork.visualizer.mediumVisualizer signalWaveLength 50m
attr unit m
par TargetNetwork.visualizer.mediumVisualizer signalWaveWidth 10m
attr unit m
par TargetNetwork.visualizer.mediumVisualizer signalWaveFadingAnimationSpeedFactor 1
par TargetNetwork.visualizer.mediumVisualizer displayCommunicationHeat false
par TargetNetwork.visualizer.obstacleLossVisualizer typename "\"inet.visualizer.canvas.physicallayer.TracingObstacleLossCanvasVisualizer\""
par TargetNetwork.visualizer.obstacleLossVisualizer visualizationTargetModule "\"^.^\""
par TargetNetwork.visualizer.obstacleLossVisualizer visualizationSubjectModule "\"^.^\""
par TargetNetwork.visualizer.obstacleLossVisualizer tags "\"\""
par TargetNetwork.visualizer.obstacleLossVisualizer displayIntersections false
par TargetNetwork.visualizer.obstacleLossVisualizer intersectionLineColor "\"red\""
par TargetNetwork.visualizer.obstacleLossVisualizer intersectionLineStyle "\"solid\""
par TargetNetwork.visualizer.obstacleLossVisualizer intersectionLineWidth 1
par TargetNetwork.visualizer.obstacleLossVisualizer displayFaceNormalVectors false
par TargetNetwork.visualizer.obstacleLossVisualizer faceNormalLineColor "\"grey\""
par TargetNetwork.visualizer.obstacleLossVisualizer faceNormalLineStyle "\"solid\""
par TargetNetwork.visualizer.obstacleLossVisualizer faceNormalLineWidth 1
par TargetNetwork.visualizer.obstacleLossVisualizer fadeOutMode "\"realTime\""
attr enum realTime,animationTime,simulationTime
par TargetNetwork.visualizer.obstacleLossVisualizer fadeOutTime 1s
attr unit s
par TargetNetwork.visualizer.obstacleLossVisualizer fadeOutAnimationSpeed 0
par TargetNetwork.visualizer.obstacleLossVisualizer zIndex 0
par TargetNetwork.visualizer.packetDropVisualizer typename "\"inet.visualizer.canvas.common.PacketDropCanvasVisualizer\""
par TargetNetwork.visualizer.packetDropVisualizer visualizationTargetModule "\"^.^\""
par TargetNetwork.visualizer.packetDropVisualizer visualizationSubjectModule "\"^.^\""
par TargetNetwork.visualizer.packetDropVisualizer tags "\"\""
par TargetNetwork.visualizer.packetDropVisualizer displayPacketDrops false
par TargetNetwork.visualizer.packetDropVisualizer nodeFilter "\"*\""
attr mutable ""
par TargetNetwork.visualizer.packetDropVisualizer interfaceFilter "\"*\""
attr mutable ""
par TargetNetwork.visualizer.packetDropVisualizer packetFilter "(omnetpp::cValueHolder)holder: \"*\""
attr mutable ""
par TargetNetwork.visualizer.packetDropVisualizer detailsFilter "\"*\""
attr mutable ""
par TargetNetwork.visualizer.packetDropVisualizer icon "\"msg/packet_s\""
par TargetNetwork.visualizer.packetDropVisualizer iconTintAmount 1
par TargetNetwork.visualizer.packetDropVisualizer iconTintColor "\"dark\""
par TargetNetwork.visualizer.packetDropVisualizer labelFormat "\"%n\""
attr mutable ""
par TargetNetwork.visualizer.packetDropVisualizer labelFont "\"<default>\""
par TargetNetwork.visualizer.packetDropVisualizer labelColor "\"black\""
par TargetNetwork.visualizer.packetDropVisualizer fadeOutMode "\"realTime\""
attr enum realTime,animationTime,simulationTime
par TargetNetwork.visualizer.packetDropVisualizer fadeOutTime 1s
attr unit s
par TargetNetwork.visualizer.packetDropVisualizer fadeOutAnimationSpeed 0
par TargetNetwork.visualizer.packetDropVisualizer zIndex 10
par TargetNetwork.visualizer.packetDropVisualizer dx 32
par TargetNetwork.visualizer.packetDropVisualizer dy 64
par TargetNetwork.visualizer.packetFlowVisualizer typename "\"inet.visualizer.canvas.flow.PacketFlowCanvasVisualizer\""
par TargetNetwork.visualizer.packetFlowVisualizer visualizationTargetModule "\"^.^\""
par TargetNetwork.visualizer.packetFlowVisualizer visualizationSubjectModule "\"^.^\""
par TargetNetwork.visualizer.packetFlowVisualizer tags "\"\""
par TargetNetwork.visualizer.packetFlowVisualizer displayRoutes false
par TargetNetwork.visualizer.packetFlowVisualizer startPathSignal "\"packetFlowStarted\""
par TargetNetwork.visualizer.packetFlowVisualizer extendPathSignal "\"packetReceivedFromLower\""
par TargetNetwork.visualizer.packetFlowVisualizer endPathSignal "\"packetFlowEnded\""
par TargetNetwork.visualizer.packetFlowVisualizer nodeFilter "\"*\""
attr mutable ""
par TargetNetwork.visualizer.packetFlowVisualizer packetFilter "(omnetpp::cValueHolder)holder: \"*\""
attr mutable ""
par TargetNetwork.visualizer.packetFlowVisualizer lineColor "\"dark\""
attr enum light,dark
par TargetNetwork.visualizer.packetFlowVisualizer lineStyle "\"dashed\""
par TargetNetwork.visualizer.packetFlowVisualizer lineWidth 3
par TargetNetwork.visualizer.packetFlowVisualizer lineSmooth false
par TargetNetwork.visualizer.packetFlowVisualizer lineShift 16
par TargetNetwork.visualizer.packetFlowVisualizer lineShiftMode "\"normal\""
par TargetNetwork.visualizer.packetFlowVisualizer lineContactSpacing 3
par TargetNetwork.visualizer.packetFlowVisualizer lineContactMode "\"rectangular\""
attr enum circular,rectangular
par TargetNetwork.visualizer.packetFlowVisualizer labelFormat "\"%L %p pk (%l)\""
par TargetNetwork.visualizer.packetFlowVisualizer labelFont "\"<default>, 8px\""
par TargetNetwork.visualizer.packetFlowVisualizer labelColor "\"\""
par TargetNetwork.visualizer.packetFlowVisualizer fadeOutMode "\"realTime\""
attr enum realTime,animationTime,simulationTime
par TargetNetwork.visualizer.packetFlowVisualizer fadeOutTime 0s
attr unit s
par TargetNetwork.visualizer.packetFlowVisualizer fadeOutAnimationSpeed 0
par TargetNetwork.visualizer.packetFlowVisualizer zIndex 4
par TargetNetwork.visualizer.queueVisualizer typename "\"inet.visualizer.canvas.common.QueueCanvasVisualizer\""
par TargetNetwork.visualizer.queueVisualizer visualizationTargetModule "\"^.^\""
par TargetNetwork.visualizer.queueVisualizer visualizationSubjectModule "\"^.^\""
par TargetNetwork.visualizer.queueVisualizer tags "\"\""
par TargetNetwork.visualizer.queueVisualizer networkNodeVisualizerModule "\"^.networkNodeVisualizer\""
par TargetNetwork.visualizer.queueVisualizer displayQueues false
par TargetNetwork.visualizer.queueVisualizer queueFilter "\"**\""
par TargetNetwork.visualizer.queueVisualizer color "\"blue\""
par TargetNetwork.visualizer.queueVisualizer width 8
par TargetNetwork.visualizer.queueVisualizer height 24
par TargetNetwork.visualizer.queueVisualizer spacing 2
par TargetNetwork.visualizer.queueVisualizer placementHint "\"right\""
par TargetNetwork.visualizer.queueVisualizer placementPriority 0
par TargetNetwork.visualizer.queueVisualizer zIndex 10
par TargetNetwork.visualizer.gateScheduleVisualizer typename "\"inet.visualizer.canvas.common.GateScheduleCanvasVisualizer\""
par TargetNetwork.visualizer.gateScheduleVisualizer visualizationTargetModule "\"^.^\""
par TargetNetwork.visualizer.gateScheduleVisualizer visualizationSubjectModule "\"^.^\""
par TargetNetwork.visualizer.gateScheduleVisualizer tags "\"\""
par TargetNetwork.visualizer.gateScheduleVisualizer networkNodeVisualizerModule "\"^.networkNodeVisualizer\""
par TargetNetwork.visualizer.gateScheduleVisualizer displayGateSchedules false
par TargetNetwork.visualizer.gateScheduleVisualizer labelFormat "\"%i %D\""
par TargetNetwork.visualizer.gateScheduleVisualizer gateFilter "\"**\""
par TargetNetwork.visualizer.gateScheduleVisualizer width 100
par TargetNetwork.visualizer.gateScheduleVisualizer height 8
par TargetNetwork.visualizer.gateScheduleVisualizer spacing 2
par TargetNetwork.visualizer.gateScheduleVisualizer placementHint "\"right\""
par TargetNetwork.visualizer.gateScheduleVisualizer placementPriority 0
par TargetNetwork.visualizer.gateScheduleVisualizer displayDuration 0s
attr mutable ""
attr unit s
par TargetNetwork.visualizer.gateScheduleVisualizer currentTimePosition 50
par TargetNetwork.visualizer.gateScheduleVisualizer zIndex 10
par TargetNetwork.visualizer.radioVisualizer typename "\"inet.visualizer.canvas.physicallayer.RadioCanvasVisualizer\""
par TargetNetwork.visualizer.radioVisualizer visualizationTargetModule "\"^.^\""
par TargetNetwork.visualizer.radioVisualizer visualizationSubjectModule "\"^.^\""
par TargetNetwork.visualizer.radioVisualizer tags "\"\""
par TargetNetwork.visualizer.radioVisualizer networkNodeVisualizerModule "\"^.networkNodeVisualizer\""
par TargetNetwork.visualizer.radioVisualizer displayRadios false
par TargetNetwork.visualizer.radioVisualizer displayRadioMode true
par TargetNetwork.visualizer.radioVisualizer displayReceptionState true
par TargetNetwork.visualizer.radioVisualizer displayTransmissionState true
par TargetNetwork.visualizer.radioVisualizer displayAntennaLobes false
par TargetNetwork.visualizer.radioVisualizer radioFilter "\"**\""
attr mutable ""
par TargetNetwork.visualizer.radioVisualizer radioModeImages "\"block/process_vs block/timer_vs block/wrx_vs block/wtx_vs block/wrxtx_vs block/cogwheel_vs\""
par TargetNetwork.visualizer.radioVisualizer receptionStateImages "\"- - misc/receiving misc/receiving\""
par TargetNetwork.visualizer.radioVisualizer transmissionStateImages "\"- - misc/transmitting\""
par TargetNetwork.visualizer.radioVisualizer width 16
par TargetNetwork.visualizer.radioVisualizer height 16
par TargetNetwork.visualizer.radioVisualizer placementHint "\"bottomRight\""
par TargetNetwork.visualizer.radioVisualizer placementPriority 0
par TargetNetwork.visualizer.radioVisualizer antennaLobeNormalize false
par TargetNetwork.visualizer.radioVisualizer antennaLobeRelativeLabels false
par TargetNetwork.visualizer.radioVisualizer antennaLobePlaneGlobal true
par TargetNetwork.visualizer.radioVisualizer antennaLobePlane "\"view\""
attr enum view,xy,xz,yz
par TargetNetwork.visualizer.radioVisualizer antennaLobeMode "\"logarithmic\""
attr enum logarithmic,linear
par TargetNetwork.visualizer.radioVisualizer antennaLobeLogarithmicBase 10
par TargetNetwork.visualizer.radioVisualizer antennaLobeLogarithmicScale 100
par TargetNetwork.visualizer.radioVisualizer antennaLobeRadius 100
par TargetNetwork.visualizer.radioVisualizer antennaLobeStep 10deg
attr unit deg
par TargetNetwork.visualizer.radioVisualizer antennaLobeOpacity 0.25
par TargetNetwork.visualizer.radioVisualizer antennaLobeLineSmooth true
par TargetNetwork.visualizer.radioVisualizer antennaLobeLineColor "\"black\""
par TargetNetwork.visualizer.radioVisualizer antennaLobeLineStyle "\"solid\""
par TargetNetwork.visualizer.radioVisualizer antennaLobeLineWidth 1
par TargetNetwork.visualizer.radioVisualizer antennaLobeFillColor "\"white\""
par TargetNetwork.visualizer.radioVisualizer zIndex 10
par TargetNetwork.visualizer.physicalLinkVisualizer typename "\"inet.visualizer.canvas.physicallayer.PhysicalLinkCanvasVisualizer\""
par TargetNetwork.visualizer.physicalLinkVisualizer visualizationTargetModule "\"^.^\""
par TargetNetwork.visualizer.physicalLinkVisualizer visualizationSubjectModule "\"^.^\""
par TargetNetwork.visualizer.physicalLinkVisualizer tags "\"\""
par TargetNetwork.visualizer.physicalLinkVisualizer displayLinks false
par TargetNetwork.visualizer.physicalLinkVisualizer activityLevel "\"service\""
attr enum service,peer,protocol
par TargetNetwork.visualizer.physicalLinkVisualizer nodeFilter "\"*\""
attr mutable ""
par TargetNetwork.visualizer.physicalLinkVisualizer interfaceFilter "\"*\""
attr mutable ""
par TargetNetwork.visualizer.physicalLinkVisualizer packetFilter "(omnetpp::cValueHolder)holder: \"*\""
attr mutable ""
par TargetNetwork.visualizer.physicalLinkVisualizer lineColor "\"olive\""
par TargetNetwork.visualizer.physicalLinkVisualizer lineStyle "\"dotted\""
par TargetNetwork.visualizer.physicalLinkVisualizer lineWidth 3
par TargetNetwork.visualizer.physicalLinkVisualizer lineShift 16
par TargetNetwork.visualizer.physicalLinkVisualizer lineShiftMode "\"normal\""
par TargetNetwork.visualizer.physicalLinkVisualizer lineContactSpacing 3
par TargetNetwork.visualizer.physicalLinkVisualizer lineContactMode "\"rectangular\""
attr enum circular,rectangular
par TargetNetwork.visualizer.physicalLinkVisualizer labelFormat "\"%n\""
par TargetNetwork.visualizer.physicalLinkVisualizer labelFont "\"<default>, 8px\""
par TargetNetwork.visualizer.physicalLinkVisualizer labelColor "\"olive\""
par TargetNetwork.visualizer.physicalLinkVisualizer fadeOutMode "\"realTime\""
attr enum realTime,animationTime,simulationTime
par TargetNetwork.visualizer.physicalLinkVisualizer fadeOutTime 1s
attr unit s
par TargetNetwork.visualizer.physicalLinkVisualizer fadeOutAnimationSpeed 0
par TargetNetwork.visualizer.physicalLinkVisualizer holdAnimationTime 0s
attr unit s
par TargetNetwork.visualizer.physicalLinkVisualizer zIndex 1
par TargetNetwork.visualizer.interfaceTableVisualizer typename "\"inet.visualizer.canvas.linklayer.InterfaceTableCanvasVisualizer\""
par TargetNetwork.visualizer.interfaceTableVisualizer visualizationTargetModule "\"^.^\""
par TargetNetwork.visualizer.interfaceTableVisualizer visualizationSubjectModule "\"^.^\""
par TargetNetwork.visualizer.interfaceTableVisualizer tags "\"\""
par TargetNetwork.visualizer.interfaceTableVisualizer networkNodeVisualizerModule "\"^.networkNodeVisualizer\""
par TargetNetwork.visualizer.interfaceTableVisualizer displayInterfaceTables false
par TargetNetwork.visualizer.interfaceTableVisualizer displayWiredInterfacesAtConnections true
par TargetNetwork.visualizer.interfaceTableVisualizer displayBackground false
par TargetNetwork.visualizer.interfaceTableVisualizer nodeFilter "\"*\""
attr mutable ""
par TargetNetwork.visualizer.interfaceTableVisualizer interfaceFilter "\"not(lo*)\""
attr mutable ""
par TargetNetwork.visualizer.interfaceTableVisualizer format "\"%N %\\\\%a%/%l\""
attr mutable ""
par TargetNetwork.visualizer.interfaceTableVisualizer placementHint "\"top\""
par TargetNetwork.visualizer.interfaceTableVisualizer placementPriority 0
par TargetNetwork.visualizer.interfaceTableVisualizer font "\"<default>\""
par TargetNetwork.visualizer.interfaceTableVisualizer textColor "\"#005030\""
par TargetNetwork.visualizer.interfaceTableVisualizer backgroundColor "\"white\""
par TargetNetwork.visualizer.interfaceTableVisualizer opacity 1
par TargetNetwork.visualizer.interfaceTableVisualizer zIndex 10
par TargetNetwork.visualizer.dataLinkVisualizer typename "\"inet.visualizer.canvas.linklayer.DataLinkCanvasVisualizer\""
par TargetNetwork.visualizer.dataLinkVisualizer visualizationTargetModule "\"^.^\""
par TargetNetwork.visualizer.dataLinkVisualizer visualizationSubjectModule "\"^.^\""
par TargetNetwork.visualizer.dataLinkVisualizer tags "\"\""
par TargetNetwork.visualizer.dataLinkVisualizer displayLinks false
par TargetNetwork.visualizer.dataLinkVisualizer activityLevel "\"service\""
attr enum service,peer,protocol
par TargetNetwork.visualizer.dataLinkVisualizer nodeFilter "\"*\""
attr mutable ""
par TargetNetwork.visualizer.dataLinkVisualizer interfaceFilter "\"*\""
attr mutable ""
par TargetNetwork.visualizer.dataLinkVisualizer packetFilter "(omnetpp::cValueHolder)holder: \"*\""
attr mutable ""
par TargetNetwork.visualizer.dataLinkVisualizer lineColor "\"darkcyan\""
par TargetNetwork.visualizer.dataLinkVisualizer lineStyle "\"solid\""
par TargetNetwork.visualizer.dataLinkVisualizer lineWidth 3
par TargetNetwork.visualizer.dataLinkVisualizer lineShift 16
par TargetNetwork.visualizer.dataLinkVisualizer lineShiftMode "\"normal\""
par TargetNetwork.visualizer.dataLinkVisualizer lineContactSpacing 3
par TargetNetwork.visualizer.dataLinkVisualizer lineContactMode "\"rectangular\""
attr enum circular,rectangular
par TargetNetwork.visualizer.dataLinkVisualizer labelFormat "\"%n\""
par TargetNetwork.visualizer.dataLinkVisualizer labelFont "\"<default>, 8px\""
par TargetNetwork.visualizer.dataLinkVisualizer labelColor "\"darkcyan\""
par TargetNetwork.visualizer.dataLinkVisualizer fadeOutMode "\"realTime\""
attr enum realTime,animationTime,simulationTime
par TargetNetwork.visualizer.dataLinkVisualizer fadeOutTime 1s
attr unit s
par TargetNetwork.visualizer.dataLinkVisualizer fadeOutAnimationSpeed 0
par TargetNetwork.visualizer.dataLinkVisualizer holdAnimationTime 0s
attr unit s
par TargetNetwork.visualizer.dataLinkVisualizer zIndex 2
par TargetNetwork.visualizer.linkBreakVisualizer typename "\"inet.visualizer.canvas.linklayer.LinkBreakCanvasVisualizer\""
par TargetNetwork.visualizer.linkBreakVisualizer visualizationTargetModule "\"^.^\""
par TargetNetwork.visualizer.linkBreakVisualizer visualizationSubjectModule "\"^.^\""
par TargetNetwork.visualizer.linkBreakVisualizer tags "\"\""
par TargetNetwork.visualizer.linkBreakVisualizer displayLinkBreaks false
par TargetNetwork.visualizer.linkBreakVisualizer nodeFilter "\"*\""
attr mutable ""
par TargetNetwork.visualizer.linkBreakVisualizer interfaceFilter "\"*\""
attr mutable ""
par TargetNetwork.visualizer.linkBreakVisualizer packetFilter "(omnetpp::cValueHolder)holder: \"*\""
attr mutable ""
par TargetNetwork.visualizer.linkBreakVisualizer icon "\"status/stop\""
par TargetNetwork.visualizer.linkBreakVisualizer iconTintAmount 0
par TargetNetwork.visualizer.linkBreakVisualizer iconTintColor "\"\""
par TargetNetwork.visualizer.linkBreakVisualizer fadeOutMode "\"realTime\""
attr enum realTime,animationTime,simulationTime
par TargetNetwork.visualizer.linkBreakVisualizer fadeOutTime 1s
attr unit s
par TargetNetwork.visualizer.linkBreakVisualizer fadeOutAnimationSpeed 0
par TargetNetwork.visualizer.linkBreakVisualizer zIndex 2
par TargetNetwork.visualizer.ieee80211Visualizer typename "\"inet.visualizer.canvas.linklayer.Ieee80211CanvasVisualizer\""
par TargetNetwork.visualizer.ieee80211Visualizer visualizationTargetModule "\"^.^\""
par TargetNetwork.visualizer.ieee80211Visualizer visualizationSubjectModule "\"^.^\""
par TargetNetwork.visualizer.ieee80211Visualizer tags "\"\""
par TargetNetwork.visualizer.ieee80211Visualizer networkNodeVisualizerModule "\"^.networkNodeVisualizer\""
par TargetNetwork.visualizer.ieee80211Visualizer displayAssociations false
par TargetNetwork.visualizer.ieee80211Visualizer nodeFilter "\"*\""
attr mutable ""
par TargetNetwork.visualizer.ieee80211Visualizer interfaceFilter "\"*\""
attr mutable ""
par TargetNetwork.visualizer.ieee80211Visualizer minPower -85dBm
attr unit dBm
par TargetNetwork.visualizer.ieee80211Visualizer maxPower -50dBm
attr unit dBm
par TargetNetwork.visualizer.ieee80211Visualizer icons "\"misc/signal_power_0 misc/signal_power_1 misc/signal_power_2 misc/signal_power_3\""
par TargetNetwork.visualizer.ieee80211Visualizer iconColor "\"dark\""
attr enum light,dark
par TargetNetwork.visualizer.ieee80211Visualizer labelFont "\"<default>\""
par TargetNetwork.visualizer.ieee80211Visualizer labelColor "\"black\""
par TargetNetwork.visualizer.ieee80211Visualizer placementHint "\"top\""
par TargetNetwork.visualizer.ieee80211Visualizer placementPriority 0
par TargetNetwork.visualizer.ieee80211Visualizer zIndex 2
par TargetNetwork.visualizer.networkRouteVisualizer typename "\"inet.visualizer.canvas.networklayer.NetworkRouteCanvasVisualizer\""
par TargetNetwork.visualizer.networkRouteVisualizer visualizationTargetModule "\"^.^\""
par TargetNetwork.visualizer.networkRouteVisualizer visualizationSubjectModule "\"^.^\""
par TargetNetwork.visualizer.networkRouteVisualizer tags "\"\""
par TargetNetwork.visualizer.networkRouteVisualizer displayRoutes false
par TargetNetwork.visualizer.networkRouteVisualizer startPathSignal "\"packetReceivedFromUpper\""
par TargetNetwork.visualizer.networkRouteVisualizer extendPathSignal "\"packetReceivedFromLower\""
par TargetNetwork.visualizer.networkRouteVisualizer endPathSignal "\"packetSentToUpper\""
par TargetNetwork.visualizer.networkRouteVisualizer nodeFilter "\"*\""
attr mutable ""
par TargetNetwork.visualizer.networkRouteVisualizer packetFilter "(omnetpp::cValueHolder)holder: \"*\""
attr mutable ""
par TargetNetwork.visualizer.networkRouteVisualizer lineColor "\"dark\""
attr enum light,dark
par TargetNetwork.visualizer.networkRouteVisualizer lineStyle "\"solid\""
par TargetNetwork.visualizer.networkRouteVisualizer lineWidth 3
par TargetNetwork.visualizer.networkRouteVisualizer lineSmooth false
par TargetNetwork.visualizer.networkRouteVisualizer lineShift 16
par TargetNetwork.visualizer.networkRouteVisualizer lineShiftMode "\"normal\""
par TargetNetwork.visualizer.networkRouteVisualizer lineContactSpacing 3
par TargetNetwork.visualizer.networkRouteVisualizer lineContactMode "\"rectangular\""
attr enum circular,rectangular
par TargetNetwork.visualizer.networkRouteVisualizer labelFormat "\"%n\""
par TargetNetwork.visualizer.networkRouteVisualizer labelFont "\"<default>, 8px\""
par TargetNetwork.visualizer.networkRouteVisualizer labelColor "\"\""
par TargetNetwork.visualizer.networkRouteVisualizer fadeOutMode "\"realTime\""
attr enum realTime,animationTime,simulationTime
par TargetNetwork.visualizer.networkRouteVisualizer fadeOutTime 1s
attr unit s
par TargetNetwork.visualizer.networkRouteVisualizer fadeOutAnimationSpeed 0
par TargetNetwork.visualizer.networkRouteVisualizer zIndex 3
par TargetNetwork.visualizer.routingTableVisualizer typename "\"inet.visualizer.canvas.networklayer.RoutingTableCanvasVisualizer\""
par TargetNetwork.visualizer.routingTableVisualizer visualizationTargetModule "\"^.^\""
par TargetNetwork.visualizer.routingTableVisualizer visualizationSubjectModule "\"^.^\""
par TargetNetwork.visualizer.routingTableVisualizer tags "\"\""
par TargetNetwork.visualizer.routingTableVisualizer displayRoutingTables false
par TargetNetwork.visualizer.routingTableVisualizer displayRoutesIndividually true
par TargetNetwork.visualizer.routingTableVisualizer displayLabels true
par TargetNetwork.visualizer.routingTableVisualizer destinationFilter "\"*\""
attr mutable ""
par TargetNetwork.visualizer.routingTableVisualizer nodeFilter "\"*\""
attr mutable ""
par TargetNetwork.visualizer.routingTableVisualizer lineColor "\"black\""
par TargetNetwork.visualizer.routingTableVisualizer lineStyle "\"solid\""
par TargetNetwork.visualizer.routingTableVisualizer lineWidth 2
par TargetNetwork.visualizer.routingTableVisualizer lineShift 16
par TargetNetwork.visualizer.routingTableVisualizer lineShiftMode "\"normal\""
par TargetNetwork.visualizer.routingTableVisualizer lineContactSpacing 3
par TargetNetwork.visualizer.routingTableVisualizer lineContactMode "\"rectangular\""
attr enum circular,rectangular
par TargetNetwork.visualizer.routingTableVisualizer labelFormat "\"%d/%m -> %g (%n)\""
attr mutable ""
par TargetNetwork.visualizer.routingTableVisualizer labelFont "\"<default>, 8px\""
par TargetNetwork.visualizer.routingTableVisualizer labelColor "\"black\""
par TargetNetwork.visualizer.routingTableVisualizer zIndex 0
par TargetNetwork.visualizer.transportRouteVisualizer typename "\"inet.visualizer.canvas.transportlayer.TransportRouteCanvasVisualizer\""
par TargetNetwork.visualizer.transportRouteVisualizer visualizationTargetModule "\"^.^\""
par TargetNetwork.visualizer.transportRouteVisualizer visualizationSubjectModule "\"^.^\""
par TargetNetwork.visualizer.transportRouteVisualizer tags "\"\""
par TargetNetwork.visualizer.transportRouteVisualizer displayRoutes false
par TargetNetwork.visualizer.transportRouteVisualizer startPathSignal "\"packetReceivedFromUpper\""
par TargetNetwork.visualizer.transportRouteVisualizer extendPathSignal "\"packetReceivedFromLower\""
par TargetNetwork.visualizer.transportRouteVisualizer endPathSignal "\"packetSentToUpper\""
par TargetNetwork.visualizer.transportRouteVisualizer nodeFilter "\"*\""
attr mutable ""
par TargetNetwork.visualizer.transportRouteVisualizer packetFilter "(omnetpp::cValueHolder)holder: \"*\""
attr mutable ""
par TargetNetwork.visualizer.transportRouteVisualizer lineColor "\"dark\""
attr enum light,dark
par TargetNetwork.visualizer.transportRouteVisualizer lineStyle "\"solid\""
par TargetNetwork.visualizer.transportRouteVisualizer lineWidth 3
par TargetNetwork.visualizer.transportRouteVisualizer lineSmooth false
par TargetNetwork.visualizer.transportRouteVisualizer lineShift 16
par TargetNetwork.visualizer.transportRouteVisualizer lineShiftMode "\"normal\""
par TargetNetwork.visualizer.transportRouteVisualizer lineContactSpacing 3
par TargetNetwork.visualizer.transportRouteVisualizer lineContactMode "\"rectangular\""
attr enum circular,rectangular
par TargetNetwork.visualizer.transportRouteVisualizer labelFormat "\"%n\""
par TargetNetwork.visualizer.transportRouteVisualizer labelFont "\"<default>, 8px\""
par TargetNetwork.visualizer.transportRouteVisualizer labelColor "\"\""
par TargetNetwork.visualizer.transportRouteVisualizer fadeOutMode "\"realTime\""
attr enum realTime,animationTime,simulationTime
par TargetNetwork.visualizer.transportRouteVisualizer fadeOutTime 1s
attr unit s
par TargetNetwork.visualizer.transportRouteVisualizer fadeOutAnimationSpeed 0
par TargetNetwork.visualizer.transportRouteVisualizer zIndex 4
par TargetNetwork.visualizer.transportConnectionVisualizer typename "\"inet.visualizer.canvas.transportlayer.TransportConnectionCanvasVisualizer\""
par TargetNetwork.visualizer.transportConnectionVisualizer visualizationTargetModule "\"^.^\""
par TargetNetwork.visualizer.transportConnectionVisualizer visualizationSubjectModule "\"^.^\""
par TargetNetwork.visualizer.transportConnectionVisualizer tags "\"\""
par TargetNetwork.visualizer.transportConnectionVisualizer networkNodeVisualizerModule "\"^.networkNodeVisualizer\""
par TargetNetwork.visualizer.transportConnectionVisualizer displayTransportConnections false
par TargetNetwork.visualizer.transportConnectionVisualizer sourceNodeFilter "\"*\""
attr mutable ""
par TargetNetwork.visualizer.transportConnectionVisualizer sourcePortFilter "\"*\""
attr mutable ""
par TargetNetwork.visualizer.transportConnectionVisualizer destinationNodeFilter "\"*\""
attr mutable ""
par TargetNetwork.visualizer.transportConnectionVisualizer destinationPortFilter "\"*\""
attr mutable ""
par TargetNetwork.visualizer.transportConnectionVisualizer icon "\"misc/marker_s\""
par TargetNetwork.visualizer.transportConnectionVisualizer iconColor "\"dark\""
attr enum light,dark
par TargetNetwork.visualizer.transportConnectionVisualizer labelFont "\"<default>\""
par TargetNetwork.visualizer.transportConnectionVisualizer labelColor "\"black\""
par TargetNetwork.visualizer.transportConnectionVisualizer placementHint "\"top\""
par TargetNetwork.visualizer.transportConnectionVisualizer placementPriority 0
par TargetNetwork.visualizer.transportConnectionVisualizer zIndex 4
par TargetNetwork.visualizer.failureProtectionConfigurationVisualizer typename "\"inet.visualizer.canvas.configurator.FailureProtectionConfigurationCanvasVisualizer\""
par TargetNetwork.visualizer.failureProtectionConfigurationVisualizer visualizationTargetModule "\"^.^\""
par TargetNetwork.visualizer.failureProtectionConfigurationVisualizer visualizationSubjectModule "\"^.^\""
par TargetNetwork.visualizer.failureProtectionConfigurationVisualizer tags "\"\""
par TargetNetwork.visualizer.failureProtectionConfigurationVisualizer displayTrees false
par TargetNetwork.visualizer.failureProtectionConfigurationVisualizer lineColor "\"dark\""
attr enum light,dark
par TargetNetwork.visualizer.failureProtectionConfigurationVisualizer lineStyle "\"solid\""
par TargetNetwork.visualizer.failureProtectionConfigurationVisualizer lineWidth 3
par TargetNetwork.visualizer.failureProtectionConfigurationVisualizer lineSmooth false
par TargetNetwork.visualizer.failureProtectionConfigurationVisualizer lineShift 16
par TargetNetwork.visualizer.failureProtectionConfigurationVisualizer lineShiftMode "\"normal\""
par TargetNetwork.visualizer.failureProtectionConfigurationVisualizer lineContactSpacing 3
par TargetNetwork.visualizer.failureProtectionConfigurationVisualizer lineContactMode "\"rectangular\""
attr enum circular,rectangular
par TargetNetwork.visualizer.failureProtectionConfigurationVisualizer failureProtectionConfiguratorModule "\"failureProtectionConfigurator\""
par TargetNetwork.visualizer.failureProtectionConfigurationVisualizer streamFilter "\"*\""
par TargetNetwork.visualizer.failureProtectionConfigurationVisualizer zIndex 3
par TargetNetwork.visualizer.streamRedundancyConfigurationVisualizer typename "\"inet.visualizer.canvas.configurator.StreamRedundancyConfigurationCanvasVisualizer\""
par TargetNetwork.visualizer.streamRedundancyConfigurationVisualizer visualizationTargetModule "\"^.^\""
par TargetNetwork.visualizer.streamRedundancyConfigurationVisualizer visualizationSubjectModule "\"^.^\""
par TargetNetwork.visualizer.streamRedundancyConfigurationVisualizer tags "\"\""
par TargetNetwork.visualizer.streamRedundancyConfigurationVisualizer displayTrees false
par TargetNetwork.visualizer.streamRedundancyConfigurationVisualizer lineColor "\"dark\""
attr enum light,dark
par TargetNetwork.visualizer.streamRedundancyConfigurationVisualizer lineStyle "\"solid\""
par TargetNetwork.visualizer.streamRedundancyConfigurationVisualizer lineWidth 3
par TargetNetwork.visualizer.streamRedundancyConfigurationVisualizer lineSmooth false
par TargetNetwork.visualizer.streamRedundancyConfigurationVisualizer lineShift 16
par TargetNetwork.visualizer.streamRedundancyConfigurationVisualizer lineShiftMode "\"normal\""
par TargetNetwork.visualizer.streamRedundancyConfigurationVisualizer lineContactSpacing 3
par TargetNetwork.visualizer.streamRedundancyConfigurationVisualizer lineContactMode "\"rectangular\""
attr enum circular,rectangular
par TargetNetwork.visualizer.streamRedundancyConfigurationVisualizer streamRedundancyConfiguratorModule "\"streamRedundancyConfigurator\""
par TargetNetwork.visualizer.streamRedundancyConfigurationVisualizer streamFilter "\"*\""
par TargetNetwork.visualizer.streamRedundancyConfigurationVisualizer zIndex 3
par TargetNetwork.visualizer typename "\"inet.visualizer.canvas.integrated.IntegratedCanvasVisualizer\""
par TargetNetwork.configurator typename "\"inet.networklayer.configurator.ipv4.Ipv4NetworkConfigurator\""
par TargetNetwork.configurator minLinkWeight 0.001
par TargetNetwork.configurator configureIsolatedNetworksSeparatly false
par TargetNetwork.configurator config "<config>...</config> at content:1"
par TargetNetwork.configurator assignAddresses true
par TargetNetwork.configurator assignUniqueAddresses true
par TargetNetwork.configurator assignDisjunctSubnetAddresses true
par TargetNetwork.configurator addStaticRoutes true
par TargetNetwork.configurator addDefaultRoutes true
par TargetNetwork.configurator addSubnetRoutes true
par TargetNetwork.configurator addDirectRoutes true
par TargetNetwork.configurator optimizeRoutes true
par TargetNetwork.configurator dumpTopology false
par TargetNetwork.configurator dumpLinks false
par TargetNetwork.configurator dumpAddresses false
par TargetNetwork.configurator dumpRoutes false
par TargetNetwork.configurator dumpConfig "\"\""
par TargetNetwork.macForwardingTableConfigurator typename "\"inet.linklayer.configurator.MacForwardingTableConfigurator\""
par TargetNetwork.tsn.ethg$i[0].channel typename "\"ned.IdealChannel\""
par TargetNetwork.tsn.eth[0].phys$o.channel typename "\"ned.IdealChannel\""
par TargetNetwork.tsn.interfaceTable typename "\"inet.networklayer.common.InterfaceTable\""
par TargetNetwork.tsn.interfaceTable displayAddresses false
par TargetNetwork.tsn.cb typename "\"inet.common.MessageDispatcher\""
par TargetNetwork.tsn.cb displayStringTextFormat "\"processed %p pk (%l)\""
par TargetNetwork.tsn.cb forwardServiceRegistration true
par TargetNetwork.tsn.cb forwardProtocolRegistration true
par TargetNetwork.tsn.bridging.directionReverser.upperLayerIn.channel typename "\"ned.IdealChannel\""
par TargetNetwork.tsn.bridging.directionReverser.join.out.channel typename "\"ned.IdealChannel\""
par TargetNetwork.tsn.bridging.directionReverser.lowerLayerIn.channel typename "\"ned.IdealChannel\""
par TargetNetwork.tsn.bridging.directionReverser.fork.out[0].channel typename "\"ned.IdealChannel\""
par TargetNetwork.tsn.bridging.directionReverser.fork typename "\"inet.common.MessageDispatcher\""
par TargetNetwork.tsn.bridging.directionReverser.fork displayStringTextFormat "\"processed %p pk (%l)\""
par TargetNetwork.tsn.bridging.directionReverser.fork forwardServiceRegistration false
par TargetNetwork.tsn.bridging.directionReverser.fork forwardProtocolRegistration true
par TargetNetwork.tsn.bridging.directionReverser.reverser typename "\"inet.linklayer.ethernet.common.PacketDirectionReverser\""
par TargetNetwork.tsn.bridging.directionReverser.reverser displayStringTextFormat "\"processed %p pk (%l)\""
par TargetNetwork.tsn.bridging.directionReverser.reverser forwardVlan true
par TargetNetwork.tsn.bridging.directionReverser.reverser forwardPcp true
par TargetNetwork.tsn.bridging.directionReverser.reverser excludeEncapsulationProtocols []
par TargetNetwork.tsn.bridging.directionReverser.join typename "\"inet.queueing.common.PacketMultiplexer\""
par TargetNetwork.tsn.bridging.directionReverser.join displayStringTextFormat "\"passed %p pk (%l)\""
par TargetNetwork.tsn.bridging.directionReverser.join forwardServiceRegistration true
par TargetNetwork.tsn.bridging.directionReverser.join forwardProtocolRegistration false
par TargetNetwork.tsn.bridging.directionReverser typename "\"inet.linklayer.ethernet.common.DirectionReverserLayer\""
par TargetNetwork.tsn.bridging.streamIdentifier.upperLayerIn.channel typename "\"ned.IdealChannel\""
par TargetNetwork.tsn.bridging.streamIdentifier.identifier.out.channel typename "\"ned.IdealChannel\""
par TargetNetwork.tsn.bridging.streamIdentifier.identifier typename "\"inet.protocolelement.redundancy.StreamIdentifier\""
par TargetNetwork.tsn.bridging.streamIdentifier.identifier displayStringTextFormat "\"processed %p pk (%l)\""
par TargetNetwork.tsn.bridging.streamIdentifier.identifier hasSequenceNumbering false
par TargetNetwork.tsn.bridging.streamIdentifier.identifier mapping "[{packetfilter: (omnetpp::cOwnedDynamicExpression)mapping.array2.map1., stream: \"best-effort\"}]"
attr mutable ""
par TargetNetwork.tsn.bridging.streamIdentifier typename "\"inet.protocolelement.redundancy.StreamIdentifierLayer\""
par TargetNetwork.tsn.bridging.streamCoder.upperLayerIn.channel typename "\"ned.IdealChannel\""
par TargetNetwork.tsn.bridging.streamCoder.encoder.out.channel typename "\"ned.IdealChannel\""
par TargetNetwork.tsn.bridging.streamCoder.lowerLayerIn.channel typename "\"ned.IdealChannel\""
par TargetNetwork.tsn.bridging.streamCoder.decoder.out.channel typename "\"ned.IdealChannel\""
par TargetNetwork.tsn.bridging.streamCoder.decoder typename "\"inet.protocolelement.redundancy.StreamDecoder\""
par TargetNetwork.tsn.bridging.streamCoder.decoder displayStringTextFormat "\"processed %p pk (%l)\""
par TargetNetwork.tsn.bridging.streamCoder.decoder interfaceTableModule "\"TargetNetwork.tsn.interfaceTable\""
par TargetNetwork.tsn.bridging.streamCoder.decoder mapping []
attr mutable ""
par TargetNetwork.tsn.bridging.streamCoder.encoder typename "\"inet.protocolelement.redundancy.StreamEncoder\""
par TargetNetwork.tsn.bridging.streamCoder.encoder displayStringTextFormat "\"processed %p pk (%l)\""
par TargetNetwork.tsn.bridging.streamCoder.encoder mapping "[{pcp: 0, stream: \"best-effort\"}, {pcp: 4, stream: \"time-triggered\"}, {pcp: 5, stream: \"ack\"}]"
attr mutable ""
par TargetNetwork.tsn.bridging.streamCoder typename "\"inet.protocolelement.redundancy.StreamCoderLayer\""
par TargetNetwork.tsn.bridging.streamCoder interfaceTableModule "\"TargetNetwork.tsn.interfaceTable\""
par TargetNetwork.tsn.bridging typename "\"inet.linklayer.ethernet.common.BridgingLayer\""
par TargetNetwork.tsn.bridging macTableModule "\"\""
par TargetNetwork.tsn.bridging interfaceTableModule "\"TargetNetwork.tsn.interfaceTable\""
par TargetNetwork.tsn.bl typename "\"inet.common.MessageDispatcher\""
par TargetNetwork.tsn.bl displayStringTextFormat "\"processed %p pk (%l)\""
par TargetNetwork.tsn.bl forwardServiceRegistration true
par TargetNetwork.tsn.bl forwardProtocolRegistration true
par TargetNetwork.tsn.ethernet.fcsInserter.out.channel typename "\"ned.IdealChannel\""
par TargetNetwork.tsn.ethernet.lowerLayerIn.channel typename "\"ned.IdealChannel\""
par TargetNetwork.tsn.ethernet.upperLayerIn.channel typename "\"ned.IdealChannel\""
par TargetNetwork.tsn.ethernet.macHeaderChecker.out.channel typename "\"ned.IdealChannel\""
par TargetNetwork.tsn.ethernet.macHeaderInserter typename "\"inet.linklayer.ethernet.modular.EthernetMacHeaderInserter\""
par TargetNetwork.tsn.ethernet.macHeaderInserter displayStringTextFormat "\"processed %p pk (%l)\""
par TargetNetwork.tsn.ethernet.macHeaderInserter interfaceTableModule "\"TargetNetwork.tsn.interfaceTable\""
par TargetNetwork.tsn.ethernet.paddingInserter typename "\"inet.protocolelement.common.PaddingInserter\""
par TargetNetwork.tsn.ethernet.paddingInserter displayStringTextFormat "\"processed %p pk (%l)\""
par TargetNetwork.tsn.ethernet.paddingInserter minLength 480b
attr unit b
par TargetNetwork.tsn.ethernet.paddingInserter roundingLength 8b
attr unit b
par TargetNetwork.tsn.ethernet.paddingInserter insertionPosition "\"back\""
attr enum front,back
par TargetNetwork.tsn.ethernet.fcsInserter typename "\"inet.linklayer.ethernet.modular.EthernetFcsInserter\""
par TargetNetwork.tsn.ethernet.fcsInserter displayStringTextFormat "\"processed %p pk (%l)\""
par TargetNetwork.tsn.ethernet.fcsInserter fcsMode "\"declared\""
attr enum disabled,declared,computed
par TargetNetwork.tsn.ethernet.macHeaderChecker typename "\"inet.linklayer.ethernet.modular.EthernetMacHeaderChecker\""
par TargetNetwork.tsn.ethernet.macHeaderChecker displayStringTextFormat "\"dropped %d/%p pk (%k/%l)\""
par TargetNetwork.tsn.ethernet.macHeaderChecker backpressure false
par TargetNetwork.tsn.ethernet.macHeaderChecker interfaceTableModule "\"TargetNetwork.tsn.interfaceTable\""
par TargetNetwork.tsn.ethernet.macHeaderChecker promiscuous false
par TargetNetwork.tsn.ethernet.fcsChecker typename "\"inet.linklayer.ethernet.modular.EthernetFcsChecker\""
par TargetNetwork.tsn.ethernet.fcsChecker displayStringTextFormat "\"dropped %d/%p pk (%k/%l)\""
par TargetNetwork.tsn.ethernet.fcsChecker backpressure false
par TargetNetwork.tsn.ethernet.fcsChecker popFcs true
par TargetNetwork.tsn.ethernet typename "\"inet.linklayer.ethernet.modular.EthernetLayer\""
par TargetNetwork.tsn.ethernet interfaceTableModule "\"TargetNetwork.tsn.interfaceTable\""
par TargetNetwork.tsn.ethernet hasSocketSupport false
par TargetNetwork.tsn.ieee8021q.qTagHeaderInserter.out.channel typename "\"ned.IdealChannel\""
par TargetNetwork.tsn.ieee8021q.lowerLayerIn.channel typename "\"ned.IdealChannel\""
par TargetNetwork.tsn.ieee8021q.upperLayerIn.channel typename "\"ned.IdealChannel\""
par TargetNetwork.tsn.ieee8021q.qTagHeaderChecker.out.channel typename "\"ned.IdealChannel\""
par TargetNetwork.tsn.ieee8021q.qTagHeaderInserter typename "\"inet.linklayer.ieee8021q.Ieee8021qTagEpdHeaderInserter\""
par TargetNetwork.tsn.ieee8021q.qTagHeaderInserter displayStringTextFormat "\"processed %p pk (%l)\""
par TargetNetwork.tsn.ieee8021q.qTagHeaderInserter vlanTagType "\"c\""
attr enum c,s
par TargetNetwork.tsn.ieee8021q.qTagHeaderInserter nextProtocol "\"ethernetmac\""
par TargetNetwork.tsn.ieee8021q.qTagHeaderInserter defaultVlanId -1
par TargetNetwork.tsn.ieee8021q.qTagHeaderInserter defaultPcp -1
par TargetNetwork.tsn.ieee8021q.qTagHeaderInserter defaultUserPriority -1
par TargetNetwork.tsn.ieee8021q.qTagHeaderInserter defaultDropEligible -1
par TargetNetwork.tsn.ieee8021q.qTagHeaderChecker typename "\"inet.linklayer.ieee8021q.Ieee8021qTagEpdHeaderChecker\""
par TargetNetwork.tsn.ieee8021q.qTagHeaderChecker displayStringTextFormat "\"dropped %d/%p pk (%k/%l)\""
par TargetNetwork.tsn.ieee8021q.qTagHeaderChecker backpressure false
par TargetNetwork.tsn.ieee8021q.qTagHeaderChecker vlanTagType "\"c\""
attr enum c,s
par TargetNetwork.tsn.ieee8021q.qTagHeaderChecker vlanIdFilter []
attr mutable ""
par TargetNetwork.tsn.ieee8021q typename "\"inet.linklayer.ieee8021q.Ieee8021qProtocol\""
par TargetNetwork.tsn.ieee8021q vlanTagType "\"c\""
par TargetNetwork.tsn.ieee8021q hasSocketSupport false
par TargetNetwork.tsn.li typename "\"inet.common.MessageDispatcher\""
par TargetNetwork.tsn.li displayStringTextFormat "\"processed %p pk (%l)\""
par TargetNetwork.tsn.li forwardServiceRegistration true
par TargetNetwork.tsn.li forwardProtocolRegistration true
par TargetNetwork.tsn.lo[0].upperLayerIn.channel typename "\"ned.IdealChannel\""
par TargetNetwork.tsn.lo[0].lo.upperLayerOut.channel typename "\"ned.IdealChannel\""
par TargetNetwork.tsn.lo[0].lo typename "\"inet.linklayer.loopback.Loopback\""
par TargetNetwork.tsn.lo[0].lo interfaceTableModule "\"TargetNetwork.tsn.interfaceTable\""
par TargetNetwork.tsn.lo[0].lo mtu 4470B
attr unit B
par TargetNetwork.tsn.lo[0] typename "\"inet.linklayer.loopback.LoopbackInterface\""
par TargetNetwork.tsn.lo[0] displayStringTextFormat "\"%a (%i)\\n%m\""
par TargetNetwork.tsn.lo[0] recordPcap false
par TargetNetwork.tsn.lo[0] numPcapRecorders 0
par TargetNetwork.tsn.lo[0] interfaceTableModule "\"TargetNetwork.tsn.interfaceTable\""
par TargetNetwork.tsn.eth[0].phyLayer.lowerLayerOut.channel typename "\"ned.IdealChannel\""
par TargetNetwork.tsn.eth[0].phys$i.channel typename "\"ned.IdealChannel\""
par TargetNetwork.tsn.eth[0].upperLayerIn.channel typename "\"ned.IdealChannel\""
par TargetNetwork.tsn.eth[0].macLayer.upperLayerOut.channel typename "\"ned.IdealChannel\""
par TargetNetwork.tsn.eth[0].macLayer.upperLayerIn.channel typename "\"ned.IdealChannel\""
par TargetNetwork.tsn.eth[0].macLayer.outboundEmitter.out.channel typename "\"ned.IdealChannel\""
par TargetNetwork.tsn.eth[0].macLayer.lowerLayerIn.channel typename "\"ned.IdealChannel\""
par TargetNetwork.tsn.eth[0].macLayer.fcsChecker.out.channel typename "\"ned.IdealChannel\""
par TargetNetwork.tsn.eth[0].macLayer.queue typename "\"inet.queueing.queue.PacketQueue\""
par TargetNetwork.tsn.eth[0].macLayer.queue displayStringTextFormat "\"contains %p pk (%l) pushed %u\\npulled %o removed %r dropped %d\""
par TargetNetwork.tsn.eth[0].macLayer.queue packetCapacity 100
par TargetNetwork.tsn.eth[0].macLayer.queue dataCapacity -1b
attr unit b
par TargetNetwork.tsn.eth[0].macLayer.queue dropperClass "\"inet::queueing::PacketAtCollectionEndDropper\""
par TargetNetwork.tsn.eth[0].macLayer.queue comparatorClass "\"\""
par TargetNetwork.tsn.eth[0].macLayer.queue bufferModule "\"\""
par TargetNetwork.tsn.eth[0].macLayer.queue portName "\"\""
par TargetNetwork.tsn.eth[0].macLayer.server typename "\"inet.queueing.server.InstantServer\""
par TargetNetwork.tsn.eth[0].macLayer.server displayStringTextFormat "\"served %p pk (%l)\""
par TargetNetwork.tsn.eth[0].macLayer.server serveSchedulingPriority 0
par TargetNetwork.tsn.eth[0].macLayer.outboundEmitter typename "\"inet.protocolelement.common.PacketEmitter\""
par TargetNetwork.tsn.eth[0].macLayer.outboundEmitter displayStringTextFormat "\"processed %p pk (%l)\""
par TargetNetwork.tsn.eth[0].macLayer.outboundEmitter packetFilter "(omnetpp::cValueHolder)holder: \"*\""
par TargetNetwork.tsn.eth[0].macLayer.outboundEmitter direction "\"outbound\""
attr enum undefined,inbound,outbound
par TargetNetwork.tsn.eth[0].macLayer.outboundEmitter signalName "\"packetSentToLower\""
par TargetNetwork.tsn.eth[0].macLayer.fcsChecker typename "\"inet.linklayer.ethernet.modular.EthernetFcsChecker\""
par TargetNetwork.tsn.eth[0].macLayer.fcsChecker displayStringTextFormat "\"dropped %d/%p pk (%k/%l)\""
par TargetNetwork.tsn.eth[0].macLayer.fcsChecker backpressure false
par TargetNetwork.tsn.eth[0].macLayer.fcsChecker popFcs false
par TargetNetwork.tsn.eth[0].macLayer.inboundEmitter typename "\"inet.protocolelement.common.PacketEmitter\""
par TargetNetwork.tsn.eth[0].macLayer.inboundEmitter displayStringTextFormat "\"processed %p pk (%l)\""
par TargetNetwork.tsn.eth[0].macLayer.inboundEmitter packetFilter "(omnetpp::cValueHolder)holder: \"*\""
par TargetNetwork.tsn.eth[0].macLayer.inboundEmitter direction "\"inbound\""
attr enum undefined,inbound,outbound
par TargetNetwork.tsn.eth[0].macLayer.inboundEmitter signalName "\"packetReceivedFromLower\""
par TargetNetwork.tsn.eth[0].macLayer typename "\"inet.linklayer.ethernet.modular.EthernetMacLayer\""
par TargetNetwork.tsn.eth[0].macLayer bitrate 1e+08bps
attr unit bps
par TargetNetwork.tsn.eth[0].phyLayer.upperLayerIn.channel typename "\"ned.IdealChannel\""
par TargetNetwork.tsn.eth[0].phyLayer.transmitter.out.channel typename "\"ned.IdealChannel\""
par TargetNetwork.tsn.eth[0].phyLayer.lowerLayerIn.channel typename "\"ned.IdealChannel\""
par TargetNetwork.tsn.eth[0].phyLayer.phyHeaderChecker.out.channel typename "\"ned.IdealChannel\""
par TargetNetwork.tsn.eth[0].phyLayer.phyHeaderInserter typename "\"inet.physicallayer.wired.ethernet.EthernetPhyHeaderInserter\""
par TargetNetwork.tsn.eth[0].phyLayer.phyHeaderInserter displayStringTextFormat "\"processed %p pk (%l)\""
par TargetNetwork.tsn.eth[0].phyLayer.interFrameGapInserter typename "\"inet.protocolelement.common.InterpacketGapInserter\""
par TargetNetwork.tsn.eth[0].phyLayer.interFrameGapInserter displayStringTextFormat "\"delayed %p pk (%l)\\nifg: %g\""
par TargetNetwork.tsn.eth[0].phyLayer.interFrameGapInserter clockModule "\"\""
par TargetNetwork.tsn.eth[0].phyLayer.interFrameGapInserter initialChannelBusy false
par TargetNetwork.tsn.eth[0].phyLayer.interFrameGapInserter duration 96s/dropUnit(parent.bitrate)
attr unit s
par TargetNetwork.tsn.eth[0].phyLayer.outboundEmitter typename "\"inet.protocolelement.common.PacketEmitter\""
par TargetNetwork.tsn.eth[0].phyLayer.outboundEmitter displayStringTextFormat "\"processed %p pk (%l)\""
par TargetNetwork.tsn.eth[0].phyLayer.outboundEmitter packetFilter "(omnetpp::cValueHolder)holder: \"*\""
par TargetNetwork.tsn.eth[0].phyLayer.outboundEmitter direction "\"outbound\""
attr enum undefined,inbound,outbound
par TargetNetwork.tsn.eth[0].phyLayer.outboundEmitter signalName "\"packetSentToLower\""
par TargetNetwork.tsn.eth[0].phyLayer.transmitter typename "\"inet.protocolelement.transceiver.PacketTransmitter\""
par TargetNetwork.tsn.eth[0].phyLayer.transmitter displayStringTextFormat "\"processed %p pk (%l)\""
par TargetNetwork.tsn.eth[0].phyLayer.transmitter clockModule "\"\""
par TargetNetwork.tsn.eth[0].phyLayer.transmitter datarate this.bitrate
attr unit bps
scalar TargetNetwork.tsn.eth[0].phyLayer.transmitter propagationTime 0
par TargetNetwork.tsn.eth[0].phyLayer.phyHeaderChecker typename "\"inet.physicallayer.wired.ethernet.EthernetPhyHeaderChecker\""
par TargetNetwork.tsn.eth[0].phyLayer.phyHeaderChecker displayStringTextFormat "\"dropped %d/%p pk (%k/%l)\""
par TargetNetwork.tsn.eth[0].phyLayer.phyHeaderChecker backpressure false
par TargetNetwork.tsn.eth[0].phyLayer.inboundEmitter typename "\"inet.protocolelement.common.PacketEmitter\""
par TargetNetwork.tsn.eth[0].phyLayer.inboundEmitter displayStringTextFormat "\"processed %p pk (%l)\""
par TargetNetwork.tsn.eth[0].phyLayer.inboundEmitter packetFilter "(omnetpp::cValueHolder)holder: \"*\""
par TargetNetwork.tsn.eth[0].phyLayer.inboundEmitter direction "\"inbound\""
attr enum undefined,inbound,outbound
par TargetNetwork.tsn.eth[0].phyLayer.inboundEmitter signalName "\"packetReceivedFromLower\""
par TargetNetwork.tsn.eth[0].phyLayer.receiver typename "\"inet.protocolelement.transceiver.PacketReceiver\""
par TargetNetwork.tsn.eth[0].phyLayer.receiver displayStringTextFormat "\"processed %p pk (%l)\""
par TargetNetwork.tsn.eth[0].phyLayer.receiver datarate 1e+08bps
attr unit bps
par TargetNetwork.tsn.eth[0].phyLayer typename "\"inet.physicallayer.wired.ethernet.EthernetPhyLayer\""
par TargetNetwork.tsn.eth[0].phyLayer bitrate this.bitrate
attr unit bps
par TargetNetwork.tsn.eth[0] typename "\"inet.linklayer.ethernet.LayeredEthernetInterface\""
par TargetNetwork.tsn.eth[0] displayStringTextFormat "\"%a (%i)\\n%m\""
par TargetNetwork.tsn.eth[0] recordPcap false
par TargetNetwork.tsn.eth[0] numPcapRecorders 0
par TargetNetwork.tsn.eth[0] protocol "\"ethernetmac\""
par TargetNetwork.tsn.eth[0] broadcast true
par TargetNetwork.tsn.eth[0] multicast true
par TargetNetwork.tsn.eth[0] address "\"0A-AA-00-00-00-01\""
attr mutable ""
par TargetNetwork.tsn.eth[0] bitrate 1e+08bps
attr unit bps
par TargetNetwork.tsn.eth[0] mtu 1500B
attr unit B
par TargetNetwork.tsn.eth[0] interfaceTableModule "\"TargetNetwork.tsn.interfaceTable\""
par TargetNetwork.tsn.ipv4.transportIn.channel typename "\"ned.IdealChannel\""
par TargetNetwork.tsn.ipv4.up.out[0].channel typename "\"ned.IdealChannel\""
par TargetNetwork.tsn.ipv4.lp.out[2].channel typename "\"ned.IdealChannel\""
par TargetNetwork.tsn.ipv4.ifIn.channel typename "\"ned.IdealChannel\""
par TargetNetwork.tsn.ipv4.configurator typename "\"inet.networklayer.configurator.ipv4.Ipv4NodeConfigurator\""
par TargetNetwork.tsn.ipv4.configurator interfaceTableModule "\"TargetNetwork.tsn.interfaceTable\""
par TargetNetwork.tsn.ipv4.configurator routingTableModule "\"TargetNetwork.tsn.ipv4.routingTable\""
par TargetNetwork.tsn.ipv4.configurator networkConfiguratorModule "\"configurator\""
par TargetNetwork.tsn.ipv4.configurator configureRoutingTable true
par TargetNetwork.tsn.ipv4.routingTable typename "\"inet.networklayer.ipv4.Ipv4RoutingTable\""
par TargetNetwork.tsn.ipv4.routingTable interfaceTableModule "\"TargetNetwork.tsn.interfaceTable\""
par TargetNetwork.tsn.ipv4.routingTable routerId "\"auto\""
par TargetNetwork.tsn.ipv4.routingTable netmaskRoutes "\"*\""
par TargetNetwork.tsn.ipv4.routingTable forwarding false
par TargetNetwork.tsn.ipv4.routingTable multicastForwarding false
par TargetNetwork.tsn.ipv4.routingTable useAdminDist false
par TargetNetwork.tsn.ipv4.routingTable routingFile "\"\""
par TargetNetwork.tsn.ipv4.natTable typename "\"inet.networklayer.ipv4.Ipv4NatTable\""
par TargetNetwork.tsn.ipv4.natTable networkProtocolModule "\"^.ip\""
par TargetNetwork.tsn.ipv4.natTable config "<config/> at content:1"
par TargetNetwork.tsn.ipv4.up typename "\"inet.common.MessageDispatcher\""
par TargetNetwork.tsn.ipv4.up displayStringTextFormat "\"processed %p pk (%l)\""
par TargetNetwork.tsn.ipv4.up forwardServiceRegistration true
par TargetNetwork.tsn.ipv4.up forwardProtocolRegistration true
par TargetNetwork.tsn.ipv4.igmp typename "\"inet.networklayer.ipv4.Igmpv2\""
par TargetNetwork.tsn.ipv4.igmp interfaceTableModule "\"TargetNetwork.tsn.interfaceTable\""
par TargetNetwork.tsn.ipv4.igmp routingTableModule "\"TargetNetwork.tsn.ipv4.routingTable\""
par TargetNetwork.tsn.ipv4.igmp crcMode "\"declared\""
attr enum declared,computed
par TargetNetwork.tsn.ipv4.igmp enabled true
par TargetNetwork.tsn.ipv4.igmp robustnessVariable 2
par TargetNetwork.tsn.ipv4.igmp queryInterval 125s
attr unit s
par TargetNetwork.tsn.ipv4.igmp queryResponseInterval 10s
attr unit s
par TargetNetwork.tsn.ipv4.igmp groupMembershipInterval 260s
attr unit s
par TargetNetwork.tsn.ipv4.igmp otherQuerierPresentInterval 255s
attr unit s
par TargetNetwork.tsn.ipv4.igmp startupQueryInterval 31.25s
attr unit s
par TargetNetwork.tsn.ipv4.igmp startupQueryCount 2
par TargetNetwork.tsn.ipv4.igmp lastMemberQueryInterval 1s
attr unit s
par TargetNetwork.tsn.ipv4.igmp lastMemberQueryCount 2
par TargetNetwork.tsn.ipv4.igmp unsolicitedReportInterval 10s
attr unit s
par TargetNetwork.tsn.ipv4.icmp typename "\"inet.networklayer.ipv4.Icmp\""
par TargetNetwork.tsn.ipv4.icmp interfaceTableModule "\"TargetNetwork.tsn.interfaceTable\""
par TargetNetwork.tsn.ipv4.icmp routingTableModule "\"TargetNetwork.tsn.ipv4.routingTable\""
par TargetNetwork.tsn.ipv4.icmp crcMode "\"declared\""
attr enum declared,computed
attr mutable ""
par TargetNetwork.tsn.ipv4.icmp quoteLength 8B
attr mutable ""
attr unit B
par TargetNetwork.tsn.ipv4.mp typename "\"inet.common.MessageDispatcher\""
par TargetNetwork.tsn.ipv4.mp displayStringTextFormat "\"processed %p pk (%l)\""
par TargetNetwork.tsn.ipv4.mp forwardServiceRegistration true
par TargetNetwork.tsn.ipv4.mp forwardProtocolRegistration true
par TargetNetwork.tsn.ipv4.ip typename "\"inet.networklayer.ipv4.Ipv4\""
par TargetNetwork.tsn.ipv4.ip interfaceTableModule "\"TargetNetwork.tsn.interfaceTable\""
par TargetNetwork.tsn.ipv4.ip routingTableModule "\"TargetNetwork.tsn.ipv4.routingTable\""
par TargetNetwork.tsn.ipv4.ip arpModule "\"TargetNetwork.tsn.ipv4.arp\""
par TargetNetwork.tsn.ipv4.ip icmpModule "\"TargetNetwork.tsn.ipv4.icmp\""
par TargetNetwork.tsn.ipv4.ip crcMode "\"declared\""
attr enum declared,computed
par TargetNetwork.tsn.ipv4.ip timeToLive 32
par TargetNetwork.tsn.ipv4.ip multicastTimeToLive 32
par TargetNetwork.tsn.ipv4.ip fragmentTimeout 60s
attr unit s
par TargetNetwork.tsn.ipv4.ip limitedBroadcast false
par TargetNetwork.tsn.ipv4.ip directBroadcastInterfaces "\"\""
par TargetNetwork.tsn.ipv4.arp typename "\"inet.networklayer.arp.ipv4.GlobalArp\""
par TargetNetwork.tsn.ipv4.arp interfaceTableModule "\"TargetNetwork.tsn.interfaceTable\""
par TargetNetwork.tsn.ipv4.arp addressType "\"ipv4\""
attr enum ipv4,ipv6,mac,moduleid,modulepath
par TargetNetwork.tsn.ipv4.lp typename "\"inet.common.MessageDispatcher\""
par TargetNetwork.tsn.ipv4.lp displayStringTextFormat "\"processed %p pk (%l)\""
par TargetNetwork.tsn.ipv4.lp forwardServiceRegistration true
par TargetNetwork.tsn.ipv4.lp forwardProtocolRegistration true
par TargetNetwork.tsn.ipv4 typename "\"inet.networklayer.ipv4.Ipv4NetworkLayer\""
par TargetNetwork.tsn.ipv4 forwarding false
par TargetNetwork.tsn.ipv4 multicastForwarding false
par TargetNetwork.tsn.ipv4 interfaceTableModule "\"TargetNetwork.tsn.interfaceTable\""
par TargetNetwork.tsn.ipv4 displayStringTextFormat "\"%i\""
par TargetNetwork.tsn.nl typename "\"inet.common.MessageDispatcher\""
par TargetNetwork.tsn.nl displayStringTextFormat "\"processed %p pk (%l)\""
par TargetNetwork.tsn.nl forwardServiceRegistration true
par TargetNetwork.tsn.nl forwardProtocolRegistration true
par TargetNetwork.tsn.udp typename "\"inet.transportlayer.udp.Udp\""
par TargetNetwork.tsn.udp interfaceTableModule "\"TargetNetwork.tsn.interfaceTable\""
par TargetNetwork.tsn.udp icmpModule "\"^.ipv4.icmp\""
par TargetNetwork.tsn.udp icmpv6Module "\"^.ipv6.icmpv6\""
par TargetNetwork.tsn.udp crcMode "\"declared\""
attr enum disabled,declared,computed
par TargetNetwork.tsn.udp defaultMulticastLoop true
par TargetNetwork.tsn.tcp typename "\"inet.transportlayer.tcp.Tcp\""
par TargetNetwork.tsn.tcp crcMode "\"declared\""
attr enum declared,computed
par TargetNetwork.tsn.tcp advertisedWindow 65535
par TargetNetwork.tsn.tcp delayedAcksEnabled false
par TargetNetwork.tsn.tcp nagleEnabled true
par TargetNetwork.tsn.tcp limitedTransmitEnabled false
par TargetNetwork.tsn.tcp increasedIWEnabled false
par TargetNetwork.tsn.tcp sackSupport false
par TargetNetwork.tsn.tcp windowScalingSupport false
par TargetNetwork.tsn.tcp windowScalingFactor -1
par TargetNetwork.tsn.tcp timestampSupport false
par TargetNetwork.tsn.tcp mss 1452
par TargetNetwork.tsn.tcp msl 120s
attr unit s
par TargetNetwork.tsn.tcp tcpAlgorithmClass "\"TcpReno\""
[...]
par TargetNetwork.tsn_switch.eth[1].macLayer.fcsChecker backpressure false
par TargetNetwork.tsn_switch.eth[1].macLayer.fcsChecker popFcs false
par TargetNetwork.tsn_switch.eth[1].macLayer.inboundEmitter typename "\"inet.protocolelement.common.PacketEmitter\""
par TargetNetwork.tsn_switch.eth[1].macLayer.inboundEmitter displayStringTextFormat "\"processed %p pk (%l)\""
par TargetNetwork.tsn_switch.eth[1].macLayer.inboundEmitter packetFilter "(omnetpp::cValueHolder)holder: \"*\""
par TargetNetwork.tsn_switch.eth[1].macLayer.inboundEmitter direction "\"inbound\""
attr enum undefined,inbound,outbound
par TargetNetwork.tsn_switch.eth[1].macLayer.inboundEmitter signalName "\"packetReceivedFromLower\""
par TargetNetwork.tsn_switch.eth[1].macLayer typename "\"inet.linklayer.ethernet.modular.EthernetMacLayer\""
par TargetNetwork.tsn_switch.eth[1].macLayer bitrate 1e+08bps
attr unit bps
par TargetNetwork.tsn_switch.eth[1].phyLayer.upperLayerIn.channel typename "\"ned.IdealChannel\""
par TargetNetwork.tsn_switch.eth[1].phyLayer.transmitter.out.channel typename "\"ned.IdealChannel\""
par TargetNetwork.tsn_switch.eth[1].phyLayer.lowerLayerIn.channel typename "\"ned.IdealChannel\""
par TargetNetwork.tsn_switch.eth[1].phyLayer.phyHeaderChecker.out.channel typename "\"ned.IdealChannel\""
par TargetNetwork.tsn_switch.eth[1].phyLayer.phyHeaderInserter typename "\"inet.physicallayer.wired.ethernet.EthernetPhyHeaderInserter\""
par TargetNetwork.tsn_switch.eth[1].phyLayer.phyHeaderInserter displayStringTextFormat "\"processed %p pk (%l)\""
par TargetNetwork.tsn_switch.eth[1].phyLayer.interFrameGapInserter typename "\"inet.protocolelement.common.InterpacketGapInserter\""
par TargetNetwork.tsn_switch.eth[1].phyLayer.interFrameGapInserter displayStringTextFormat "\"delayed %p pk (%l)\\nifg: %g\""
par TargetNetwork.tsn_switch.eth[1].phyLayer.interFrameGapInserter clockModule "\"\""
par TargetNetwork.tsn_switch.eth[1].phyLayer.interFrameGapInserter initialChannelBusy false
par TargetNetwork.tsn_switch.eth[1].phyLayer.interFrameGapInserter duration 96s/dropUnit(parent.bitrate)
attr unit s
par TargetNetwork.tsn_switch.eth[1].phyLayer.outboundEmitter typename "\"inet.protocolelement.common.PacketEmitter\""
par TargetNetwork.tsn_switch.eth[1].phyLayer.outboundEmitter displayStringTextFormat "\"processed %p pk (%l)\""
par TargetNetwork.tsn_switch.eth[1].phyLayer.outboundEmitter packetFilter "(omnetpp::cValueHolder)holder: \"*\""
par TargetNetwork.tsn_switch.eth[1].phyLayer.outboundEmitter direction "\"outbound\""
attr enum undefined,inbound,outbound
par TargetNetwork.tsn_switch.eth[1].phyLayer.outboundEmitter signalName "\"packetSentToLower\""
par TargetNetwork.tsn_switch.eth[1].phyLayer.transmitter typename "\"inet.protocolelement.transceiver.PacketTransmitter\""
par TargetNetwork.tsn_switch.eth[1].phyLayer.transmitter displayStringTextFormat "\"processed %p pk (%l)\""
par TargetNetwork.tsn_switch.eth[1].phyLayer.transmitter clockModule "\"\""
par TargetNetwork.tsn_switch.eth[1].phyLayer.transmitter datarate this.bitrate
attr unit bps
scalar TargetNetwork.tsn_switch.eth[1].phyLayer.transmitter propagationTime 0
par TargetNetwork.tsn_switch.eth[1].phyLayer.phyHeaderChecker typename "\"inet.physicallayer.wired.ethernet.EthernetPhyHeaderChecker\""
par TargetNetwork.tsn_switch.eth[1].phyLayer.phyHeaderChecker displayStringTextFormat "\"dropped %d/%p pk (%k/%l)\""
par TargetNetwork.tsn_switch.eth[1].phyLayer.phyHeaderChecker backpressure false
par TargetNetwork.tsn_switch.eth[1].phyLayer.inboundEmitter typename "\"inet.protocolelement.common.PacketEmitter\""
par TargetNetwork.tsn_switch.eth[1].phyLayer.inboundEmitter displayStringTextFormat "\"processed %p pk (%l)\""
par TargetNetwork.tsn_switch.eth[1].phyLayer.inboundEmitter packetFilter "(omnetpp::cValueHolder)holder: \"*\""
par TargetNetwork.tsn_switch.eth[1].phyLayer.inboundEmitter direction "\"inbound\""
attr enum undefined,inbound,outbound
par TargetNetwork.tsn_switch.eth[1].phyLayer.inboundEmitter signalName "\"packetReceivedFromLower\""
par TargetNetwork.tsn_switch.eth[1].phyLayer.receiver typename "\"inet.protocolelement.transceiver.PacketReceiver\""
par TargetNetwork.tsn_switch.eth[1].phyLayer.receiver displayStringTextFormat "\"processed %p pk (%l)\""
par TargetNetwork.tsn_switch.eth[1].phyLayer.receiver datarate 1e+08bps
attr unit bps
par TargetNetwork.tsn_switch.eth[1].phyLayer typename "\"inet.physicallayer.wired.ethernet.EthernetPhyLayer\""
par TargetNetwork.tsn_switch.eth[1].phyLayer bitrate this.bitrate
attr unit bps
par TargetNetwork.tsn_switch.eth[1] typename "\"inet.linklayer.ethernet.LayeredEthernetInterface\""
par TargetNetwork.tsn_switch.eth[1] displayStringTextFormat "\"%a (%i)\\n%m\""
par TargetNetwork.tsn_switch.eth[1] recordPcap false
par TargetNetwork.tsn_switch.eth[1] numPcapRecorders 0
par TargetNetwork.tsn_switch.eth[1] protocol "\"ethernetmac\""
par TargetNetwork.tsn_switch.eth[1] broadcast true
par TargetNetwork.tsn_switch.eth[1] multicast true
par TargetNetwork.tsn_switch.eth[1] address "\"0A-AA-00-00-00-05\""
attr mutable ""
par TargetNetwork.tsn_switch.eth[1] bitrate 1e+08bps
attr unit bps
par TargetNetwork.tsn_switch.eth[1] mtu 1500B
attr unit B
par TargetNetwork.tsn_switch.eth[1] interfaceTableModule "\"TargetNetwork.tsn_switch.interfaceTable\""
par TargetNetwork.tsn_switch.eth[2].phyLayer.lowerLayerOut.channel typename "\"ned.IdealChannel\""
par TargetNetwork.tsn_switch.eth[2].phys$i.channel typename "\"ned.IdealChannel\""
par TargetNetwork.tsn_switch.eth[2].upperLayerIn.channel typename "\"ned.IdealChannel\""
par TargetNetwork.tsn_switch.eth[2].macLayer.upperLayerOut.channel typename "\"ned.IdealChannel\""
par TargetNetwork.tsn_switch.eth[2].macLayer.upperLayerIn.channel typename "\"ned.IdealChannel\""
par TargetNetwork.tsn_switch.eth[2].macLayer.outboundEmitter.out.channel typename "\"ned.IdealChannel\""
par TargetNetwork.tsn_switch.eth[2].macLayer.lowerLayerIn.channel typename "\"ned.IdealChannel\""
par TargetNetwork.tsn_switch.eth[2].macLayer.fcsChecker.out.channel typename "\"ned.IdealChannel\""
par TargetNetwork.tsn_switch.eth[2].macLayer.queue.in.channel typename "\"ned.IdealChannel\""
par TargetNetwork.tsn_switch.eth[2].macLayer.queue.transmissionSelection.out.channel typename "\"ned.IdealChannel\""
par TargetNetwork.tsn_switch.eth[2].macLayer.queue.classifier typename "\"inet.linklayer.ieee8021q.PcpTrafficClassClassifier\""
par TargetNetwork.tsn_switch.eth[2].macLayer.queue.classifier displayStringTextFormat "\"classified %p pk (%l)\""
par TargetNetwork.tsn_switch.eth[2].macLayer.queue.classifier reverseOrder false
par TargetNetwork.tsn_switch.eth[2].macLayer.queue.classifier mode "\"both\""
attr enum req,ind,both
par TargetNetwork.tsn_switch.eth[2].macLayer.queue.classifier mapping "[[0, 0, 0, 0, 0, 1, 1, 1], [0, 0, 0, 0, 0, 0, 0, 0], [0, 0, 0, 1, 1, 2, 2, 2], [0, 0, 0, 1, 1, 2, 3, 3], [0, 1, 1, 2, 2, 3, 4, 4], [0, 1, 1, 2, 2, 3, 4, 5], [0, 1, 2, 3, 3, 4, 5, 6], [0, 1, 2, 3, 4, 5, 6, 7]]"
par TargetNetwork.tsn_switch.eth[2].macLayer.queue.classifier defaultGateIndex 0
par TargetNetwork.tsn_switch.eth[2].macLayer.queue.queue[0] typename "\"inet.queueing.queue.DropTailQueue\""
par TargetNetwork.tsn_switch.eth[2].macLayer.queue.queue[0] displayStringTextFormat "\"contains %p pk (%l) pushed %u\\npulled %o removed %r dropped %d\""
par TargetNetwork.tsn_switch.eth[2].macLayer.queue.queue[0] packetCapacity 100
par TargetNetwork.tsn_switch.eth[2].macLayer.queue.queue[0] dataCapacity -1b
attr unit b
par TargetNetwork.tsn_switch.eth[2].macLayer.queue.queue[0] dropperClass "\"inet::queueing::PacketAtCollectionEndDropper\""
par TargetNetwork.tsn_switch.eth[2].macLayer.queue.queue[0] comparatorClass "\"\""
par TargetNetwork.tsn_switch.eth[2].macLayer.queue.queue[0] bufferModule "\"\""
par TargetNetwork.tsn_switch.eth[2].macLayer.queue.queue[0] portName "\"\""
par TargetNetwork.tsn_switch.eth[2].macLayer.queue.queue[1] typename "\"inet.queueing.queue.DropTailQueue\""
par TargetNetwork.tsn_switch.eth[2].macLayer.queue.queue[1] displayStringTextFormat "\"contains %p pk (%l) pushed %u\\npulled %o removed %r dropped %d\""
par TargetNetwork.tsn_switch.eth[2].macLayer.queue.queue[1] packetCapacity 100
par TargetNetwork.tsn_switch.eth[2].macLayer.queue.queue[1] dataCapacity -1b
attr unit b
par TargetNetwork.tsn_switch.eth[2].macLayer.queue.queue[1] dropperClass "\"inet::queueing::PacketAtCollectionEndDropper\""
par TargetNetwork.tsn_switch.eth[2].macLayer.queue.queue[1] comparatorClass "\"\""
par TargetNetwork.tsn_switch.eth[2].macLayer.queue.queue[1] bufferModule "\"\""
par TargetNetwork.tsn_switch.eth[2].macLayer.queue.queue[1] portName "\"\""
par TargetNetwork.tsn_switch.eth[2].macLayer.queue.transmissionGate[0] typename "\"inet.queueing.gate.PeriodicGate\""
par TargetNetwork.tsn_switch.eth[2].macLayer.queue.transmissionGate[0] displayStringTextFormat "\"passed %p pk (%l)\""
par TargetNetwork.tsn_switch.eth[2].macLayer.queue.transmissionGate[0] bitrate 1e+08bps
attr unit bps
par TargetNetwork.tsn_switch.eth[2].macLayer.queue.transmissionGate[0] extraLength 64b
attr unit b
par TargetNetwork.tsn_switch.eth[2].macLayer.queue.transmissionGate[0] extraDuration 0s
attr unit s
par TargetNetwork.tsn_switch.eth[2].macLayer.queue.transmissionGate[0] clockModule "\"\""
par TargetNetwork.tsn_switch.eth[2].macLayer.queue.transmissionGate[0] initiallyOpen false
attr mutable ""
par TargetNetwork.tsn_switch.eth[2].macLayer.queue.transmissionGate[0] offset 0s
attr mutable ""
attr unit s
par TargetNetwork.tsn_switch.eth[2].macLayer.queue.transmissionGate[0] durations "[1ms, 1ms, 0.1ms, 1.9ms]"
attr mutable ""
attr unit s
par TargetNetwork.tsn_switch.eth[2].macLayer.queue.transmissionGate[0] scheduleForAbsoluteTime true
par TargetNetwork.tsn_switch.eth[2].macLayer.queue.transmissionGate[0] openSchedulingPriority 0
par TargetNetwork.tsn_switch.eth[2].macLayer.queue.transmissionGate[0] closeSchedulingPriority 0
par TargetNetwork.tsn_switch.eth[2].macLayer.queue.transmissionGate[0] enableImplicitGuardBand true
par TargetNetwork.tsn_switch.eth[2].macLayer.queue.transmissionGate[1] typename "\"inet.queueing.gate.PeriodicGate\""
par TargetNetwork.tsn_switch.eth[2].macLayer.queue.transmissionGate[1] displayStringTextFormat "\"passed %p pk (%l)\""
par TargetNetwork.tsn_switch.eth[2].macLayer.queue.transmissionGate[1] bitrate 1e+08bps
attr unit bps
par TargetNetwork.tsn_switch.eth[2].macLayer.queue.transmissionGate[1] extraLength 64b
attr unit b
par TargetNetwork.tsn_switch.eth[2].macLayer.queue.transmissionGate[1] extraDuration 0s
attr unit s
par TargetNetwork.tsn_switch.eth[2].macLayer.queue.transmissionGate[1] clockModule "\"\""
par TargetNetwork.tsn_switch.eth[2].macLayer.queue.transmissionGate[1] initiallyOpen true
attr mutable ""
par TargetNetwork.tsn_switch.eth[2].macLayer.queue.transmissionGate[1] offset 0s
attr mutable ""
attr unit s
par TargetNetwork.tsn_switch.eth[2].macLayer.queue.transmissionGate[1] durations "[1ms, 1ms]"
attr mutable ""
attr unit s
par TargetNetwork.tsn_switch.eth[2].macLayer.queue.transmissionGate[1] scheduleForAbsoluteTime true
par TargetNetwork.tsn_switch.eth[2].macLayer.queue.transmissionGate[1] openSchedulingPriority 0
par TargetNetwork.tsn_switch.eth[2].macLayer.queue.transmissionGate[1] closeSchedulingPriority 0
par TargetNetwork.tsn_switch.eth[2].macLayer.queue.transmissionGate[1] enableImplicitGuardBand true
par TargetNetwork.tsn_switch.eth[2].macLayer.queue.transmissionSelection typename "\"inet.queueing.scheduler.PriorityScheduler\""
par TargetNetwork.tsn_switch.eth[2].macLayer.queue.transmissionSelection displayStringTextFormat "\"scheduled %p pk (%l)\""
par TargetNetwork.tsn_switch.eth[2].macLayer.queue.transmissionSelection reverseOrder true
par TargetNetwork.tsn_switch.eth[2].macLayer.queue typename "\"inet.linklayer.ieee8021q.Ieee8021qTimeAwareShaper\""
par TargetNetwork.tsn_switch.eth[2].macLayer.queue displayStringTextFormat "\"contains %p pk (%l) pushed %u created %c\\n pulled %o removed %r dropped %d\""
par TargetNetwork.tsn_switch.eth[2].macLayer.queue packetCapacity -1
par TargetNetwork.tsn_switch.eth[2].macLayer.queue dataCapacity -1b
attr unit b
par TargetNetwork.tsn_switch.eth[2].macLayer.queue dropperClass "\"\""
par TargetNetwork.tsn_switch.eth[2].macLayer.queue numTrafficClasses 2
par TargetNetwork.tsn_switch.eth[2].macLayer.queue bitrate 1e+08bps
attr unit bps
par TargetNetwork.tsn_switch.eth[2].macLayer.queue hasGcl false
par TargetNetwork.tsn_switch.eth[2].macLayer.server typename "\"inet.queueing.server.InstantServer\""
par TargetNetwork.tsn_switch.eth[2].macLayer.server displayStringTextFormat "\"served %p pk (%l)\""
par TargetNetwork.tsn_switch.eth[2].macLayer.server serveSchedulingPriority 0
par TargetNetwork.tsn_switch.eth[2].macLayer.outboundEmitter typename "\"inet.protocolelement.common.PacketEmitter\""
par TargetNetwork.tsn_switch.eth[2].macLayer.outboundEmitter displayStringTextFormat "\"processed %p pk (%l)\""
par TargetNetwork.tsn_switch.eth[2].macLayer.outboundEmitter packetFilter "(omnetpp::cValueHolder)holder: \"*\""
par TargetNetwork.tsn_switch.eth[2].macLayer.outboundEmitter direction "\"outbound\""
attr enum undefined,inbound,outbound
par TargetNetwork.tsn_switch.eth[2].macLayer.outboundEmitter signalName "\"packetSentToLower\""
par TargetNetwork.tsn_switch.eth[2].macLayer.fcsChecker typename "\"inet.linklayer.ethernet.modular.EthernetFcsChecker\""
par TargetNetwork.tsn_switch.eth[2].macLayer.fcsChecker displayStringTextFormat "\"dropped %d/%p pk (%k/%l)\""
par TargetNetwork.tsn_switch.eth[2].macLayer.fcsChecker backpressure false
par TargetNetwork.tsn_switch.eth[2].macLayer.fcsChecker popFcs false
par TargetNetwork.tsn_switch.eth[2].macLayer.inboundEmitter typename "\"inet.protocolelement.common.PacketEmitter\""
par TargetNetwork.tsn_switch.eth[2].macLayer.inboundEmitter displayStringTextFormat "\"processed %p pk (%l)\""
par TargetNetwork.tsn_switch.eth[2].macLayer.inboundEmitter packetFilter "(omnetpp::cValueHolder)holder: \"*\""
par TargetNetwork.tsn_switch.eth[2].macLayer.inboundEmitter direction "\"inbound\""
attr enum undefined,inbound,outbound
par TargetNetwork.tsn_switch.eth[2].macLayer.inboundEmitter signalName "\"packetReceivedFromLower\""
par TargetNetwork.tsn_switch.eth[2].macLayer typename "\"inet.linklayer.ethernet.modular.EthernetMacLayer\""
par TargetNetwork.tsn_switch.eth[2].macLayer bitrate 1e+08bps
attr unit bps
par TargetNetwork.tsn_switch.eth[2].phyLayer.upperLayerIn.channel typename "\"ned.IdealChannel\""
par TargetNetwork.tsn_switch.eth[2].phyLayer.transmitter.out.channel typename "\"ned.IdealChannel\""
par TargetNetwork.tsn_switch.eth[2].phyLayer.lowerLayerIn.channel typename "\"ned.IdealChannel\""
par TargetNetwork.tsn_switch.eth[2].phyLayer.phyHeaderChecker.out.channel typename "\"ned.IdealChannel\""
par TargetNetwork.tsn_switch.eth[2].phyLayer.phyHeaderInserter typename "\"inet.physicallayer.wired.ethernet.EthernetPhyHeaderInserter\""
par TargetNetwork.tsn_switch.eth[2].phyLayer.phyHeaderInserter displayStringTextFormat "\"processed %p pk (%l)\""
par TargetNetwork.tsn_switch.eth[2].phyLayer.interFrameGapInserter typename "\"inet.protocolelement.common.InterpacketGapInserter\""
par TargetNetwork.tsn_switch.eth[2].phyLayer.interFrameGapInserter displayStringTextFormat "\"delayed %p pk (%l)\\nifg: %g\""
par TargetNetwork.tsn_switch.eth[2].phyLayer.interFrameGapInserter clockModule "\"\""
par TargetNetwork.tsn_switch.eth[2].phyLayer.interFrameGapInserter initialChannelBusy false
par TargetNetwork.tsn_switch.eth[2].phyLayer.interFrameGapInserter duration 96s/dropUnit(parent.bitrate)
attr unit s
par TargetNetwork.tsn_switch.eth[2].phyLayer.outboundEmitter typename "\"inet.protocolelement.common.PacketEmitter\""
par TargetNetwork.tsn_switch.eth[2].phyLayer.outboundEmitter displayStringTextFormat "\"processed %p pk (%l)\""
par TargetNetwork.tsn_switch.eth[2].phyLayer.outboundEmitter packetFilter "(omnetpp::cValueHolder)holder: \"*\""
par TargetNetwork.tsn_switch.eth[2].phyLayer.outboundEmitter direction "\"outbound\""
attr enum undefined,inbound,outbound
par TargetNetwork.tsn_switch.eth[2].phyLayer.outboundEmitter signalName "\"packetSentToLower\""
par TargetNetwork.tsn_switch.eth[2].phyLayer.transmitter typename "\"inet.protocolelement.transceiver.PacketTransmitter\""
par TargetNetwork.tsn_switch.eth[2].phyLayer.transmitter displayStringTextFormat "\"processed %p pk (%l)\""
par TargetNetwork.tsn_switch.eth[2].phyLayer.transmitter clockModule "\"\""
par TargetNetwork.tsn_switch.eth[2].phyLayer.transmitter datarate this.bitrate
attr unit bps
scalar TargetNetwork.tsn_switch.eth[2].phyLayer.transmitter propagationTime 0
par TargetNetwork.tsn_switch.eth[2].phyLayer.phyHeaderChecker typename "\"inet.physicallayer.wired.ethernet.EthernetPhyHeaderChecker\""
par TargetNetwork.tsn_switch.eth[2].phyLayer.phyHeaderChecker displayStringTextFormat "\"dropped %d/%p pk (%k/%l)\""
par TargetNetwork.tsn_switch.eth[2].phyLayer.phyHeaderChecker backpressure false
par TargetNetwork.tsn_switch.eth[2].phyLayer.inboundEmitter typename "\"inet.protocolelement.common.PacketEmitter\""
par TargetNetwork.tsn_switch.eth[2].phyLayer.inboundEmitter displayStringTextFormat "\"processed %p pk (%l)\""
par TargetNetwork.tsn_switch.eth[2].phyLayer.inboundEmitter packetFilter "(omnetpp::cValueHolder)holder: \"*\""
par TargetNetwork.tsn_switch.eth[2].phyLayer.inboundEmitter direction "\"inbound\""
attr enum undefined,inbound,outbound
par TargetNetwork.tsn_switch.eth[2].phyLayer.inboundEmitter signalName "\"packetReceivedFromLower\""
par TargetNetwork.tsn_switch.eth[2].phyLayer.receiver typename "\"inet.protocolelement.transceiver.PacketReceiver\""
par TargetNetwork.tsn_switch.eth[2].phyLayer.receiver displayStringTextFormat "\"processed %p pk (%l)\""
par TargetNetwork.tsn_switch.eth[2].phyLayer.receiver datarate 1e+08bps
attr unit bps
par TargetNetwork.tsn_switch.eth[2].phyLayer typename "\"inet.physicallayer.wired.ethernet.EthernetPhyLayer\""
par TargetNetwork.tsn_switch.eth[2].phyLayer bitrate this.bitrate
attr unit bps
par TargetNetwork.tsn_switch.eth[2] typename "\"inet.linklayer.ethernet.LayeredEthernetInterface\""
par TargetNetwork.tsn_switch.eth[2] displayStringTextFormat "\"%a (%i)\\n%m\""
par TargetNetwork.tsn_switch.eth[2] recordPcap false
par TargetNetwork.tsn_switch.eth[2] numPcapRecorders 0
par TargetNetwork.tsn_switch.eth[2] protocol "\"ethernetmac\""
par TargetNetwork.tsn_switch.eth[2] broadcast true
par TargetNetwork.tsn_switch.eth[2] multicast true
par TargetNetwork.tsn_switch.eth[2] address "\"0A-AA-00-00-00-06\""
attr mutable ""
par TargetNetwork.tsn_switch.eth[2] bitrate 1e+08bps
attr unit bps
par TargetNetwork.tsn_switch.eth[2] mtu 1500B
attr unit B
par TargetNetwork.tsn_switch.eth[2] interfaceTableModule "\"TargetNetwork.tsn_switch.interfaceTable\""
par TargetNetwork.tsn_switch typename "\"inet.node.tsn.TsnSwitch\""
par TargetNetwork.tsn_switch recordPcap false
par TargetNetwork.tsn_switch numPcapRecorders 0
par TargetNetwork.tsn_switch numApps 0
par TargetNetwork.tsn_switch hasStatus false
par TargetNetwork.tsn_switch hasStp false
par TargetNetwork.tsn_switch hasGptp false
par TargetNetwork.tsn_switch hasCutthroughSwitching false
par TargetNetwork.tsn_switch fcsMode "\"declared\""
attr enum declared,computed
par TargetNetwork.tsn_switch spanningTreeProtocol "\"Stp\""
par TargetNetwork.tsn_switch numEthInterfaces 0
par TargetNetwork.tsn_switch hasTimeSynchronization false
par TargetNetwork.tsn_switch hasIngressTrafficFiltering false
par TargetNetwork.tsn_switch hasEgressTrafficShaping true
par TargetNetwork.tsn_switch hasStreamRedundancy false
par TargetNetwork.tsn_switch hasIncomingStreams false
par TargetNetwork.tsn_switch hasOutgoingStreams false
par TargetNetwork.tsn_switch hasFramePreemption false
par TargetNetwork typename "\"TargetNetwork\""
par TargetNetwork recordPcap false
par TargetNetwork numPcapRecorders 0
par TargetNetwork hasGlobalArp true

