version 3
run General-0-20241129-15:39:47-10424
attr configname General
attr datetime 20241129-15:39:47
attr datetimef 20241129-153947
attr experiment General
attr inifile D:/jobSimQt/project/Parameters.ini
attr iterationvars ""
attr iterationvarsd ""
attr iterationvarsf ""
attr measurement ""
attr network TargetNetwork
attr processid 10424
attr repetition 0
attr replication #0
attr resultdir results
attr runnumber 0
attr seedset 0
config network TargetNetwork
config sim-time-limit 1.5s
config **.statistic-recording false
config *.*.ethernet.typename EthernetLayer
config *.*.eth[*].typename LayeredEthernetInterface
config *.*.eth[*].bitrate 100Mbps
config **.eth[*].queue.typename DropTailQueue
config **.eth[*].queue.packetCapacity 20
config **.forwarding false
config **.arp.retryTimeout 1s
config **.arp.retryCount 3
config **.arp.cacheTimeout 100s
config **.tcp.tcpAlgorithmClass "\"TcpReno\""
config **.tcp.typename Tcp
config **.tcp.advertisedWindow 65535
config **.tcp.delayedAcksEnabled false
config **.tcp.nagleEnabled true
config **.tcp.limitedTransmitEnabled false
config **.tcp.increasedIWEnabled false
config **.tcp.sackSupport false
config **.tcp.windowScalingSupport false
config **.tcp.timestampSupport false
config **.tcp.mss 1452
config *.configurator.config "xml(\"<config>\\n\" + \"<interface hosts='udp_tcp' address='192.168.0.1' netmask='255.255.255.x'/>\\n\" + \"<interface hosts='udp_tcp2' address='192.168.0.2' netmask='255.255.255.x'/>\\n\" + \"</config>\")"
config *.udp_tcp.numApps 2
config *.udp_tcp.app[0].typename UdpApp615
config *.udp_tcp.app[0].source.packetLength 1000B
config *.udp_tcp.app[0].source.productionInterval exponential(100us)
config *.udp_tcp.app[0].io.destAddress "\"udp_tcp2\""
config *.udp_tcp.app[0].io.destPort 1001
config *.udp_tcp.app[0].sink.typename ""
config *.udp_tcp.app[1].typename DDSPublishApp
config *.udp_tcp.app[1].io.receiveBroadcast true
config *.udp_tcp.app[1].io.publish "\"Topic1\""
config *.udp_tcp.app[1].io.destPort 1000
config *.udp_tcp.app[1].io.historyCacheLength 10
config *.udp_tcp.ipv4.ip.limitedBroadcast true
config *.udp_tcp.app[1].source.packetLength 5000B
config *.udp_tcp.app[1].source.productionInterval exponential(200ms)
config *.udp_tcp.app[1].sink.typename ""
config *.udp_tcp2.numApps 2
config *.udp_tcp2.app[0].typename UdpApp615
config *.udp_tcp2.app[0].source.typename ""
config *.udp_tcp2.app[0].io.destPort -1
config *.udp_tcp2.app[0].io.localPort 1001
config *.udp_tcp2.app[0].sink.flowName "\"default\""
config *.udp_tcp2.app[1].typename DDSSubscribeApp
config *.udp_tcp2.app[1].source.subscribe "\"Topic1@1000\""
config *.udp_tcp2.app[1].io.localPort 1000
config *.udp_tcp2.app[1].io.receiverBufferLength 1000
config *.udp_tcp2.app[1].io.nackCountdown 0.25ms
config *.udp_tcp2.app[1].source.packetLength 20B
config *.udp_tcp2.ipv4.ip.limitedBroadcast true
config *.udp_tcp2.app[1].sink.flowName "\"default1\""
config *.switch.eth[*].bitrate 100Mbps

vector 0 TargetNetwork.udp_tcp.eth[0].macLayer.queue 615.udp_tcp.eth[0].macLayer.queue ETV
vector 1 TargetNetwork.udp_tcp2.eth[0].macLayer.queue 615.udp_tcp2.eth[0].macLayer.queue ETV
vector 2 TargetNetwork.switch.eth[0].macLayer.queue 615.switch.eth[0].macLayer.queue ETV
vector 3 TargetNetwork.switch.eth[1].macLayer.queue 615.switch.eth[1].macLayer.queue ETV
vector 4 TargetNetwork.udp_tcp2.app[0].sink default ETV
vector 5 TargetNetwork.udp_tcp2.app[0].sink default_loss ETV
vector 6 TargetNetwork.udp_tcp2.app[1].sink default1 ETV
vector 7 TargetNetwork.udp_tcp2.app[1].sink default1_loss ETV
0	25	0	0.01
0	28	0	0
0	53	0.00007958745	0.01
0	61	0.00008528	0
0	82	0.000205180526	0.01
0	83	0.000205180526	0
0	111	0.000391140947	0.01
0	112	0.000391140947	0
0	124	0.00048346326	0.01
0	125	0.00048346326	0
0	153	0.000678617794	0.01
0	154	0.000678617794	0
0	159	0.000757337908	0.01
0	167	0.000763897794	0
0	195	0.000945234313	0.01
0	196	0.000945234313	0
0	201	0.001000339162	0.01
0	209	0.001030514313	0
0	214	0.001098039805	0.01
0	230	0.001115794313	0
0	250	0.001201855735	0.01
0	251	0.001201855735	0
0	256	0.001250368551	0.01
0	272	0.001287135735	0
0	277	0.001307920471	0.01
0	283	0.001343236385	0.02
0	299	0.001372415735	0.01
0	314	0.001457695735	0
0	334	0.001565588827	0.01
0	335	0.001565588827	0
0	340	0.001571427294	0.01
0	356	0.001650868827	0
0	384	0.001902918522	0.01
0	385	0.001902918522	0
0	390	0.001934754136	0.01
0	396	0.001983114346	0.02
0	404	0.001988198522	0.01
0	409	0.002048058981	0.02
0	425	0.002073478522	0.01
0	440	0.002158758522	0
0	445	0.002204948593	0.01
0	461	0.002244038522	0
0	481	0.002372169713	0.01
0	482	0.002372169713	0
0	495	0.002447437124	0.01
0	503	0.002457449713	0
0	508	0.002512825381	0.01
0	524	0.002542729713	0
0	529	0.002596768666	0.01
0	545	0.002628009713	0
0	550	0.002646655867	0.01
0	566	0.002713289713	0
0	594	0.002906481276	0.01
0	595	0.002906481276	0
0	615	0.003087318202	0.01
0	616	0.003087318202	0
0	621	0.003094686738	0.01
0	627	0.003135844538	0.02
0	633	0.003144960641	0.03
0	641	0.003172598202	0.02
0	646	0.003249421892	0.03
0	652	0.003251464451	0.04
0	668	0.003257878202	0.03
0	673	0.003297389265	0.04
0	689	0.003343158202	0.03
0	704	0.003428438202	0.02
0	709	0.003476138031	0.03
0	725	0.003513718202	0.02
0	740	0.003598998202	0.01
0	755	0.003684278202	0
0	775	0.003791155024	0.01
0	776	0.003791155024	0
0	796	0.00394173345	0.01
0	797	0.00394173345	0
0	802	0.003956856535	0.01
0	818	0.00402701345	0
0	838	0.004160887961	0.01
0	839	0.004160887961	0
0	867	0.004364977183	0.01
0	868	0.004364977183	0
0	888	0.00474949937	0.01
0	889	0.00474949937	0
0	894	0.004813670287	0.01
0	902	0.00483477937	0
0	922	0.004974194243	0.01
0	923	0.004974194243	0
0	943	0.00513559445	0.01
0	944	0.00513559445	0
0	957	0.005197487396	0.01
0	965	0.00522087445	0
0	970	0.005270983838	0.01
0	986	0.00530615445	0
0	1006	0.005422637435	0.01
0	1007	0.005422637435	0
0	1027	0.005536231329	0.01
0	1028	0.005536231329	0
0	1033	0.00554881877	0.01
0	1049	0.005621511329	0
0	1054	0.00567634154	0.01
0	1070	0.005706791329	0
0	1075	0.005778484727	0.01
0	1091	0.005792071329	0
0	1096	0.005865716847	0.01
0	1112	0.005877351329	0
0	1117	0.005881189815	0.01
0	1123	0.005958273281	0.02
0	1139	0.005962631329	0.01
0	1154	0.006047911329	0
0	1182	0.006247715329	0.01
0	1183	0.006247715329	0
0	1195	0.006389851797	0.01
0	1196	0.006389851797	0
0	1209	0.006463634526	0.01
0	1220	0.006474829142	0.02
0	1223	0.006475131797	0.01
0	1228	0.006528385714	0.02
0	1244	0.006560411797	0.01
0	1249	0.006592555184	0.02
0	1255	0.006623283219	0.03
0	1267	0.006643903547	0.04
0	1277	0.006645691797	0.03
0	1292	0.006730971797	0.02
0	1297	0.00679272903	0.03
0	1313	0.006816251797	0.02
0	1328	0.006901531797	0.01
0	1333	0.006926258048	0.02
0	1349	0.006986811797	0.01
0	1354	0.00698716629	0.02
0	1360	0.007011571139	0.03
0	1376	0.007072091797	0.02
0	1381	0.00709560461	0.03
0	1387	0.007110132413	0.04
0	1393	0.00711202927	0.05
0	1399	0.007151206351	0.06
0	1415	0.007157371797	0.05
0	1430	0.007242651797	0.04
0	1435	0.007247344445	0.05
0	1441	0.007263558094	0.06
0	1457	0.007327931797	0.05
0	1462	0.007358257762	0.06
0	1468	0.007383401955	0.07
0	1484	0.007413211797	0.06
0	1489	0.007479356753	0.07
0	1505	0.007498491797	0.06
0	1510	0.007528212458	0.07
0	1526	0.007583771797	0.06
0	1541	0.007669051797	0.05
0	1556	0.007754331797	0.04
0	1561	0.00781600396	0.05
0	1577	0.007839611797	0.04
0	1592	0.007924891797	0.03
0	1607	0.008010171797	0.02
0	1612	0.008048895297	0.03
0	1628	0.008095451797	0.02
0	1633	0.008163409192	0.03
0	1649	0.008180731797	0.02
0	1654	0.0082231838	0.03
0	1670	0.008266011797	0.02
0	1675	0.00826773565	0.03
0	1691	0.008351291797	0.02
0	1696	0.008362685108	0.03
0	1702	0.008420138349	0.04
0	1718	0.008436571797	0.03
0	1733	0.008521851797	0.02
0	1748	0.008607131797	0.01
0	1753	0.008652773455	0.02
0	1769	0.008692411797	0.01
0	1774	0.008772384235	0.02
0	1790	0.008777691797	0.01
0	1795	0.008782840358	0.02
0	1801	0.008789051887	0.03
0	1817	0.008862971797	0.02
0	1832	0.008948251797	0.01
0	1847	0.009033531797	0
0	1867	0.009139073255	0.01
0	1868	0.009139073255	0
0	1888	0.009248964502	0.01
0	1889	0.009248964502	0
0	1909	0.009354847915	0.01
0	1910	0.009354847915	0
0	1930	0.00946590766	0.01
0	1931	0.00946590766	0
0	1936	0.009484650267	0.01
0	1942	0.009508270938	0.02
0	1958	0.00955118766	0.01
0	1963	0.009552611341	0.02
0	1969	0.00956641421	0.03
0	1985	0.00963646766	0.02
0	1990	0.009705318479	0.03
0	2006	0.00972174766	0.02
0	2011	0.009743214675	0.03
0	2027	0.00980702766	0.02
0	2032	0.009836820831	0.03
0	2038	0.009882031037	0.04
0	2054	0.00989230766	0.03
0	2059	0.009921342293	0.04
0	2075	0.00997758766	0.03
0	2080	0.010005785072	0.04
0	2086	0.010009703388	0.05
0	2102	0.01006286766	0.04
0	2107	0.010067435819	0.05
0	2123	0.01014814766	0.04
0	2128	0.01016802292	0.05
0	2144	0.01023342766	0.04
0	2159	0.01031870766	0.03
0	2174	0.01040398766	0.02
0	2189	0.01048926766	0.01
0	2204	0.01057454766	0
0	2209	0.010613472605	0.01
0	2225	0.01065982766	0
0	2253	0.010932767269	0.01
0	2254	0.010932767269	0
0	2259	0.01094353078	0.01
0	2267	0.011018047269	0
0	2272	0.011049313421	0.01
0	2278	0.011072743573	0.02
0	2294	0.011103327269	0.01
0	2299	0.011173545498	0.02
0	2315	0.011188607269	0.01
0	2320	0.011191136853	0.02
0	2336	0.011273887269	0.01
0	2351	0.011359167269	0
0	2379	0.011727146888	0.01
0	2380	0.011727146888	0
0	2392	0.01183302116	0.01
0	2393	0.01183302116	0
0	2413	0.011920212745	0.01
0	2414	0.011920212745	0
0	2419	0.011949420798	0.01
0	2433	0.012002927266	0.02
0	2441	0.012005492745	0.01
0	2446	0.012065721424	0.02
0	2462	0.012090772745	0.01
0	2467	0.012130099524	0.02
0	2473	0.012158127225	0.03
0	2489	0.012176052745	0.02
0	2494	0.012255813632	0.03
0	2510	0.012261332745	0.02
0	2515	0.012273126378	0.03
0	2521	0.012314376501	0.04
0	2527	0.012326072042	0.05
0	2543	0.012346612745	0.04
0	2558	0.012431892745	0.03
0	2563	0.012438388872	0.04
0	2579	0.012517172745	0.03
0	2584	0.012545196092	0.04
0	2590	0.012583351676	0.05
0	2596	0.012598222903	0.06
0	2612	0.012602452745	0.05
0	2627	0.012687732745	0.04
0	2632	0.012748886436	0.05
0	2638	0.012770774496	0.06
0	2654	0.012773012745	0.05
0	2669	0.012858292745	0.04
0	2684	0.012943572745	0.03
0	2699	0.013028852745	0.02
0	2704	0.013069493485	0.03
0	2720	0.013114132745	0.02
0	2725	0.013115494881	0.03
0	2741	0.013199412745	0.02
0	2746	0.013224121819	0.03
0	2762	0.013284692745	0.02
0	2777	0.013369972745	0.01
0	2782	0.013396154985	0.02
0	2788	0.013397521443	0.03
0	2794	0.013407735931	0.04
0	2810	0.013455252745	0.03
0	2815	0.013505246124	0.04
0	2831	0.013540532745	0.03
0	2846	0.013625812745	0.02
0	2851	0.013687228016	0.03
0	2867	0.013711092745	0.02
0	2882	0.013796372745	0.01
0	2887	0.013799209453	0.02
0	2893	0.013809312931	0.03
0	2909	0.013881652745	0.02
0	2924	0.013966932745	0.01
0	2939	0.014052212745	0
0	2959	0.014166671768	0.01
0	2960	0.014166671768	0
0	2988	0.014541574914	0.01
0	2989	0.014541574914	0
0	3009	0.014752107044	0.01
0	3010	0.014752107044	0
0	3015	0.014815340704	0.01
0	3023	0.014837387044	0
0	3028	0.014886599063	0.01
0	3044	0.014922667044	0
0	3072	0.015262791791	0.01
0	3073	0.015262791791	0
0	3078	0.015268524484	0.01
0	3086	0.015348071791	0
0	3091	0.015361372334	0.01
0	3097	0.015421367023	0.02
0	3113	0.015433351791	0.01
0	3128	0.015518631791	0
0	3133	0.01555579155	0.01
0	3139	0.015557810563	0.02
0	3145	0.015561808193	0.03
0	3161	0.015603911791	0.02
0	3166	0.015620096032	0.03
0	3172	0.015653337056	0.04
0	3188	0.015689191791	0.03
0	3203	0.015774471791	0.02
0	3218	0.015859751791	0.01
0	3233	0.015945031791	0
0	3253	0.016042494068	0.01
0	3254	0.016042494068	0
0	3259	0.016055299745	0.01
0	3265	0.016099841691	0.02
0	3281	0.016127774068	0.01
0	3286	0.0161349593	0.02
0	3292	0.016200523928	0.03
0	3308	0.016213054068	0.02
0	3313	0.016213162792	0.03
0	3329	0.016298334068	0.02
0	3334	0.016329850145	0.03
0	3340	0.01636812024	0.04
0	3356	0.016383614068	0.03
0	3371	0.016468894068	0.02
0	3386	0.016554174068	0.01
0	3391	0.01658054396	0.02
0	3397	0.016634032398	0.03
0	3413	0.016639454068	0.02
0	3428	0.016724734068	0.01
0	3443	0.016810014068	0
0	3448	0.016884423576	0.01
0	3454	0.016891053316	0.02
0	3470	0.016895294068	0.01
0	3475	0.016915492861	0.02
0	3491	0.016980574068	0.01
0	3496	0.017033411814	0.02
0	3512	0.017065854068	0.01
0	3517	0.017116696166	0.02
0	3533	0.017151134068	0.01
0	3538	0.017200305919	0.02
0	3554	0.017236414068	0.01
0	3569	0.017321694068	0
0	3574	0.017400629971	0.01
0	3590	0.017406974068	0
0	3595	0.017431471455	0.01
0	3611	0.017492254068	0
0	3616	0.017502596249	0.01
0	3635	0.017576672144	0.02
0	3638	0.017577534068	0.01
0	3653	0.017662814068	0
0	3673	0.01782523038	0.01
0	3674	0.01782523038	0
0	3687	0.017835095411	0.01
0	3695	0.01791051038	0
0	3723	0.018089125862	0.01
0	3724	0.018089125862	0
0	3736	0.018174915426	0.01
0	3737	0.018174915426	0
0	3742	0.018183592474	0.01
0	3758	0.018260195426	0
0	3786	0.018448518067	0.01
0	3787	0.018448518067	0
0	3792	0.018481052109	0.01
0	3798	0.01851940813	0.02
0	3804	0.018520348205	0.03
0	3812	0.018533798067	0.02
0	3827	0.018619078067	0.01
0	3832	0.018630432796	0.02
0	3848	0.018704358067	0.01
0	3863	0.018789638067	0
0	3868	0.018815165561	0.01
0	3874	0.018829298632	0.02
0	3890	0.018874918067	0.01
0	3895	0.018933476697	0.02
0	3911	0.018960198067	0.01
0	3926	0.019045478067	0
0	3931	0.019059470078	0.01
0	3947	0.019130758067	0
0	3967	0.019243598325	0.01
0	3968	0.019243598325	0
0	3973	0.019277763742	0.01
0	3987	0.019308515514	0.02
0	3998	0.019328750558	0.03
0	4001	0.019328878325	0.02
0	4006	0.01937947057	0.03
0	4022	0.019414158325	0.02
0	4027	0.019467783474	0.03
0	4043	0.019499438325	0.02
0	4048	0.019548263214	0.03
0	4054	0.01955029446	0.04
0	4060	0.019568319685	0.05
0	4076	0.019584718325	0.04
0	4091	0.019669998325	0.03
0	4096	0.019744893792	0.04
0	4112	0.019755278325	0.03
0	4117	0.019791066882	0.04
0	4123	0.019791537536	0.05
0	4129	0.019807371687	0.06
0	4145	0.019840558325	0.05
0	4150	0.019920635101	0.06
0	4166	0.019925838325	0.05
0	4171	0.020004943404	0.06
0	4187	0.020011118325	0.05
0	4192	0.02003641557	0.06
0	4208	0.020096398325	0.05
0	4213	0.020158066435	0.06
0	4229	0.020181678325	0.05
0	4244	0.020266958325	0.04
0	4249	0.020290942222	0.05
0	4255	0.020324976896	0.06
0	4271	0.020352238325	0.05
0	4286	0.020437518325	0.04
0	4301	0.020522798325	0.03
0	4316	0.020608078325	0.02
0	4321	0.020652491214	0.03
0	4337	0.020693358325	0.02
0	4342	0.020709281629	0.03
0	4348	0.020737883726	0.04
0	4364	0.020778638325	0.03
0	4379	0.020863918325	0.02
0	4384	0.020878986167	0.03
0	4400	0.020949198325	0.02
0	4405	0.020964825464	0.03
0	4411	0.021015259845	0.04
0	4427	0.021034478325	0.03
0	4432	0.021104918932	0.04
0	4448	0.021119758325	0.03
0	4463	0.021205038325	0.02
0	4478	0.021290318325	0.01
0	4483	0.02133129229	0.02
0	4499	0.021375598325	0.01
0	4504	0.021416214371	0.02
0	4520	0.021460878325	0.01
0	4525	0.021518080244	0.02
0	4531	0.021543322243	0.03
0	4547	0.021546158325	0.02
0	4562	0.021631438325	0.01
0	4577	0.021716718325	0
0	4582	0.021765472933	0.01
0	4598	0.021801998325	0
0	4626	0.022070701099	0.01
0	4627	0.022070701099	0
0	4639	0.022184661895	0.01
0	4640	0.022184661895	0
0	4653	0.022243924298	0.01
0	4661	0.022269941895	0
0	4666	0.022303562237	0.01
0	4682	0.022355221895	0
0	4702	0.022490908225	0.01
0	4703	0.022490908225	0
0	4731	0.022875208883	0.01
0	4732	0.022875208883	0
0	4744	0.02299543274	0.01
0	4745	0.02299543274	0
0	4750	0.023007785405	0.01
0	4756	0.023043087418	0.02
0	4772	0.02308071274	0.01
0	4787	0.02316599274	0
0	4792	0.023188769274	0.01
0	4808	0.02325127274	0
0	4828	0.023356861494	0.01
0	4829	0.023356861494	0
0	4834	0.023409933744	0.01
0	4850	0.023442141494	0
0	4855	0.023460435619	0.01
0	4871	0.023527421494	0
0	4876	0.023572963821	0.01
0	4892	0.023612701494	0
0	4920	0.023785913761	0.01
0	4921	0.023785913761	0
0	4926	0.023814654809	0.01
0	4934	0.023871193761	0
0	4939	0.023901708392	0.01
0	4945	0.023939282276	0.02
0	4961	0.023956473761	0.01
0	4976	0.024041753761	0
0	4996	0.024152765321	0.01
0	4997	0.024152765321	0
0	5025	0.024489202366	0.01
0	5026	0.024489202366	0
0	5038	0.024607140659	0.01
0	5039	0.024607140659	0
0	5059	0.0246959268	0.01
0	5060	0.0246959268	0
0	5080	0.024825117727	0.01
0	5081	0.024825117727	0
0	5101	0.024932901215	0.01
0	5102	0.024932901215	0
0	5115	0.025002481161	0.01
0	5123	0.025018181215	0
0	5128	0.025078667938	0.01
0	5144	0.025103461215	0
0	5172	0.025391214774	0.01
0	5173	0.025391214774	0
0	5178	0.025417420498	0.01
0	5186	0.025476494774	0
0	5191	0.025520700199	0.01
0	5207	0.025561774774	0
0	5212	0.025570931279	0.01
0	5218	0.025626070878	0.02
0	5234	0.025647054774	0.01
0	5239	0.025722516235	0.02
0	5255	0.025732334774	0.01
0	5266	0.025815756523	0.02
0	5276	0.025817614774	0.01
0	5281	0.025880166994	0.02
0	5287	0.025882104972	0.03
0	5303	0.025902894774	0.02
0	5308	0.025945617744	0.03
0	5314	0.025981510466	0.04
0	5330	0.025988174774	0.03
0	5345	0.026073454774	0.02
0	5350	0.026107414818	0.03
0	5366	0.026158734774	0.02
0	5371	0.026215346838	0.03
0	5387	0.026244014774	0.02
0	5392	0.026249313311	0.03
0	5398	0.026283573273	0.04
0	5414	0.026329294774	0.03
0	5419	0.026331936842	0.04
0	5435	0.026414574774	0.03
0	5440	0.026428174348	0.04
0	5456	0.026499854774	0.03
0	5461	0.026566472269	0.04
0	5477	0.026585134774	0.03
0	5482	0.026622468376	0.04
0	5498	0.026670414774	0.03
0	5513	0.026755694774	0.02
0	5518	0.026833213136	0.03
0	5534	0.026840974774	0.02
0	5539	0.026847770534	0.03
0	5545	0.026858625244	0.04
0	5551	0.026894047657	0.05
0	5557	0.026903739932	0.06
0	5573	0.026926254774	0.05
0	5578	0.026988128779	0.06
0	5594	0.027011534774	0.05
0	5599	0.02703183158	0.06
0	5615	0.027096814774	0.05
0	5620	0.027121204488	0.06
0	5636	0.027182094774	0.05
0	5641	0.027201459687	0.06
0	5657	0.027267374774	0.05
0	5662	0.027286867661	0.06
0	5668	0.027290288003	0.07
0	5684	0.027352654774	0.06
0	5689	0.027396188942	0.07
0	5705	0.027437934774	0.06
0	5720	0.027523214774	0.05
0	5735	0.027608494774	0.04
0	5750	0.027693774774	0.03
0	5755	0.02774344249	0.04
0	5771	0.027779054774	0.03
0	5776	0.027849027451	0.04
0	5792	0.027864334774	0.03
0	5797	0.02788774046	0.04
0	5803	0.02794420151	0.05
0	5819	0.027949614774	0.04
0	5824	0.027969209659	0.05
0	5840	0.028034894774	0.04
0	5855	0.028120174774	0.03
0	5860	0.028196073058	0.04
0	5876	0.028205454774	0.03
0	5881	0.028211302421	0.04
0	5887	0.028257119709	0.05
0	5893	0.02826735177	0.06
0	5909	0.028290734774	0.05
0	5914	0.028324597925	0.06
0	5930	0.028376014774	0.05
0	5945	0.028461294774	0.04
0	5960	0.028546574774	0.03
0	5975	0.028631854774	0.02
0	5990	0.028717134774	0.01
0	5995	0.028738378901	0.02
0	6011	0.028802414774	0.01
0	6026	0.028887694774	0
0	6031	0.028960870367	0.01
0	6047	0.028972974774	0
0	6052	0.028991026958	0.01
0	6068	0.029058254774	0
0	6088	0.029155116716	0.01
0	6089	0.029155116716	0
0	6102	0.029232124402	0.01
0	6110	0.029240396716	0
0	6130	0.029353826352	0.01
0	6131	0.029353826352	0
0	6144	0.029413233702	0.01
0	6150	0.029423794966	0.02
0	6156	0.02943428315	0.03
0	6164	0.029439106352	0.02
0	6179	0.029524386352	0.01
0	6194	0.029609666352	0
0	6199	0.029686211363	0.01
0	6215	0.029694946352	0
0	6220	0.029729645929	0.01
0	6236	0.029780226352	0
0	6241	0.029854906681	0.01
0	6257	0.029865506352	0
0	6262	0.029918252943	0.01
0	6278	0.029950786352	0
0	6306	0.030594791995	0.01
0	6307	0.030594791995	0
0	6327	0.030778765274	0.01
0	6328	0.030778765274	0
0	6333	0.030794952283	0.01
0	6341	0.030864045274	0
0	6361	0.031029970012	0.01
0	6362	0.031029970012	0
0	6390	0.031232560894	0.01
0	6391	0.031232560894	0
0	6396	0.031236389185	0.01
0	6402	0.031254121743	0.02
0	6410	0.031317840894	0.01
0	6415	0.031325113536	0.02
0	6431	0.031403120894	0.01
0	6436	0.031420710178	0.02
0	6442	0.031438964038	0.03
0	6448	0.031452182409	0.04
0	6464	0.031488400894	0.03
0	6479	0.031573680894	0.02
0	6484	0.031603164755	0.03
0	6500	0.031658960894	0.02
0	6515	0.031744240894	0.01
0	6520	0.031791557644	0.02
0	6536	0.031829520894	0.01
0	6551	0.031914800894	0
0	6556	0.031991756294	0.01
0	6572	0.032000080894	0
0	6592	0.032156428204	0.01
0	6593	0.032156428204	0
0	6606	0.032209428492	0.01
0	6614	0.032241708204	0
0	6619	0.032293616588	0.01
0	6625	0.032308695689	0.02
0	6641	0.032326988204	0.01
0	6646	0.032360982692	0.02
0	6652	0.032364361371	0.03
0	6658	0.032371528909	0.04
0	6674	0.032412268204	0.03
0	6689	0.032497548204	0.02
0	6704	0.032582828204	0.01
0	6719	0.032668108204	0
0	6739	0.032776513593	0.01
0	6740	0.032776513593	0
0	6760	0.03289605745	0.01
0	6761	0.03289605745	0
0	6766	0.032942784707	0.01
0	6782	0.03298133745	0
0	6787	0.033003214614	0.01
0	6793	0.033057700327	0.02
0	6809	0.03306661745	0.01
0	6824	0.03315189745	0
0	6829	0.033185733747	0.01
0	6835	0.033190925002	0.02
0	6851	0.03323717745	0.01
0	6866	0.03332245745	0
0	6871	0.033392202276	0.01
0	6887	0.03340773745	0
0	6892	0.03343769346	0.01
0	6908	0.03349301745	0
0	6936	0.033808689519	0.01
0	6937	0.033808689519	0
0	6942	0.033810366296	0.01
0	6950	0.033893969519	0
0	6970	0.03400402402	0.01
0	6971	0.03400402402	0
0	6976	0.034030256951	0.01
0	6982	0.034031435274	0.02
0	6998	0.03408930402	0.01
0	7013	0.03417458402	0
0	7018	0.034176214682	0.01
0	7024	0.034220839964	0.02
0	7040	0.03425986402	0.01
0	7055	0.03434514402	0
0	7075	0.034509301139	0.01
0	7076	0.034509301139	0
0	7096	0.034640230975	0.01
0	7097	0.034640230975	0
0	7117	0.03477886011	0.01
0	7118	0.03477886011	0
0	7123	0.034797689608	0.01
0	7137	0.034839150862	0.02
0	7145	0.03486414011	0.01
0	7150	0.034912763972	0.02
0	7166	0.03494942011	0.01
0	7171	0.034980010024	0.02
0	7177	0.034985597029	0.03
0	7183	0.035026994921	0.04
0	7199	0.03503470011	0.03
0	7204	0.035049308842	0.04
0	7210	0.035069091793	0.05
0	7216	0.03507096134	0.06
0	7222	0.035089713235	0.07
0	7238	0.03511998011	0.06
0	7253	0.03520526011	0.05
0	7258	0.035247554507	0.06
0	7274	0.03529054011	0.05
0	7279	0.035309814241	0.06
0	7285	0.035335164812	0.07
0	7301	0.03537582011	0.06
0	7316	0.03546110011	0.05
0	7321	0.035542767918	0.06
0	7337	0.03554638011	0.05
0	7342	0.035585133628	0.06
0	7358	0.03563166011	0.05
0	7373	0.03571694011	0.04
0	7388	0.03580222011	0.03
0	7393	0.035873588057	0.04
0	7409	0.03588750011	0.03
0	7424	0.03597278011	0.02
0	7439	0.03605806011	0.01
0	7444	0.036136809943	0.02
0	7460	0.03614334011	0.01
0	7475	0.03622862011	0
0	7480	0.036230523815	0.01
0	7496	0.03631390011	0
0	7501	0.036352403495	0.01
0	7517	0.03639918011	0
0	7522	0.036443199898	0.01
0	7528	0.036446435578	0.02
0	7544	0.03648446011	0.01
0	7559	0.03656974011	0
0	7564	0.036599518701	0.01
0	7570	0.036617514435	0.02
0	7586	0.03665502011	0.01
0	7591	0.036686834412	0.02
0	7607	0.03674030011	0.01
0	7612	0.036783982628	0.02
0	7618	0.036789150919	0.03
0	7634	0.03682558011	0.02
0	7639	0.036875243283	0.03
0	7655	0.03691086011	0.02
0	7673	0.036995340374	0.03
0	7676	0.03699614011	0.02
0	7681	0.037022507181	0.03
0	7697	0.03708142011	0.02
0	7712	0.03716670011	0.01
0	7727	0.03725198011	0
0	7755	0.03751042047	0.01
0	7756	0.03751042047	0
0	7776	0.037782555296	0.01
0	7777	0.037782555296	0
0	7782	0.037813652076	0.01
0	7790	0.037867835296	0
0	7795	0.037908835047	0.01
0	7811	0.037953115296	0
0	7816	0.038022494697	0.01
0	7832	0.038038395296	0
0	7837	0.038099202662	0.01
0	7853	0.038123675296	0
0	7881	0.038298919859	0.01
0	7882	0.038298919859	0
0	7894	0.038388057717	0.01
0	7895	0.038388057717	0
0	7915	0.038527025423	0.01
0	7916	0.038527025423	0
0	7936	0.03865800396	0.01
0	7937	0.03865800396	0
0	7965	0.038991797393	0.01
0	7966	0.038991797393	0
0	7971	0.039029186043	0.01
0	7979	0.039077077393	0
0	7984	0.039109984048	0.01
0	7996	0.03916077056	0.02
0	8006	0.039162357393	0.01
0	8011	0.039184645847	0.02
0	8017	0.039208198304	0.03
0	8023	0.039233358165	0.04
0	8039	0.039247637393	0.03
0	8044	0.03925396137	0.04
0	8050	0.039278647297	0.05
0	8066	0.039332917393	0.04
0	8081	0.039418197393	0.03
0	8096	0.039503477393	0.02
0	8101	0.039567554856	0.03
0	8117	0.039588757393	0.02
0	8122	0.039651852734	0.03
0	8138	0.039674037393	0.02
0	8153	0.039759317393	0.01
0	8158	0.039786387477	0.02
0	8174	0.039844597393	0.01
0	8179	0.039846555376	0.02
0	8185	0.039913979833	0.03
0	8201	0.039929877393	0.02
0	8216	0.040015157393	0.01
0	8231	0.040100437393	0
0	8251	0.040265427701	0.01
0	8252	0.040265427701	0
0	8265	0.040291228977	0.01
0	8273	0.040350707701	0
0	8278	0.040405342767	0.01
0	8290	0.040434693532	0.02
0	8300	0.040435987701	0.01
0	8305	0.040443608961	0.02
0	8311	0.040449587057	0.03
0	8317	0.040455394293	0.04
0	8323	0.04051238405	0.05
0	8339	0.040521267701	0.04
0	8344	0.040579295422	0.05
0	8360	0.040606547701	0.04
0	8365	0.040616662401	0.05
0	8381	0.040691827701	0.04
0	8396	0.040777107701	0.03
0	8401	0.04082952941	0.04
0	8417	0.040862387701	0.03
0	8432	0.040947667701	0.02
0	8437	0.04094871522	0.03
0	8453	0.041032947701	0.02
0	8468	0.041118227701	0.01
0	8483	0.041203507701	0
0	8503	0.041323384681	0.01
0	8504	0.041323384681	0
0	8509	0.04137082631	0.01
0	8525	0.041408664681	0
0	8530	0.041466970267	0.01
0	8536	0.041486767041	0.02
0	8552	0.041493944681	0.01
0	8557	0.041564964613	0.02
0	8563	0.041567463448	0.03
0	8579	0.041579224681	0.02
0	8594	0.041664504681	0.01
0	8609	0.041749784681	0
0	8614	0.041760299462	0.01
0	8620	0.041767261229	0.02
0	8636	0.041835064681	0.01
0	8641	0.041903454401	0.02
0	8657	0.041920344681	0.01
0	8672	0.042005624681	0
0	8677	0.042017208252	0.01
0	8683	0.042082331325	0.02
0	8699	0.042090904681	0.01
0	8704	0.042142789447	0.02
0	8720	0.042176184681	0.01
0	8725	0.042255825002	0.02
0	8741	0.042261464681	0.01
0	8746	0.042332736982	0.02
0	8762	0.042346744681	0.01
0	8767	0.042426143015	0.02
0	8783	0.042432024681	0.01
0	8798	0.042517304681	0
0	8818	0.042653127017	0.01
0	8819	0.042653127017	0
0	8839	0.042778547344	0.01
0	8840	0.042778547344	0
0	8868	0.043242512597	0.01
0	8869	0.043242512597	0
0	8874	0.043305905599	0.01
0	8882	0.043327792597	0
0	8887	0.043330354701	0.01
0	8893	0.043391237992	0.02
0	8909	0.043413072597	0.01
0	8924	0.043498352597	0
0	8929	0.043500028435	0.01
0	8945	0.043583632597	0
0	8965	0.043736920252	0.01
0	8966	0.043736920252	0
0	8979	0.043767480742	0.01
0	8985	0.043782240345	0.02
0	8991	0.043784327067	0.03
0	8997	0.043810362208	0.04
0	9005	0.043822200252	0.03
0	9020	0.043907480252	0.02
0	9025	0.043952400554	0.03
0	9041	0.043992760252	0.02
0	9056	0.044078040252	0.01
0	9071	0.044163320252	0
0	9076	0.044165756883	0.01
0	9082	0.044204325652	0.02
0	9098	0.044248600252	0.01
0	9113	0.044333880252	0
0	9133	0.044439110028	0.01
0	9134	0.044439110028	0
0	9139	0.044487473867	0.01
0	9155	0.044524390028	0
0	9160	0.044591258875	0.01
0	9176	0.044609670028	0
0	9181	0.044680009068	0.01
0	9197	0.044694950028	0
0	9202	0.044719266371	0.01
0	9218	0.044780230028	0
0	9238	0.044897080705	0.01
0	9239	0.044897080705	0
0	9252	0.044970417472	0.01
0	9260	0.044982360705	0
0	9280	0.045069567901	0.01
0	9281	0.045069567901	0
0	9286	0.045069573436	0.01
0	9302	0.045154847901	0
0	9322	0.04527565556	0.01
0	9323	0.04527565556	0
0	9328	0.045313031889	0.01
0	9342	0.045344989354	0.02
0	9350	0.04536093556	0.01
0	9355	0.045400406437	0.02
0	9371	0.04544621556	0.01
0	9386	0.04553149556	0
0	9391	0.045560378381	0.01
0	9407	0.04561677556	0
0	9427	0.045776954749	0.01
0	9428	0.045776954749	0
0	9441	0.045797489526	0.01
0	9449	0.045862234749	0
0	9454	0.045911395291	0.01
0	9470	0.045947514749	0
0	9498	0.046216713758	0.01
0	9499	0.046216713758	0
0	9504	0.046277618219	0.01
0	9512	0.046301993758	0
0	9532	0.046393929547	0.01
0	9533	0.046393929547	0
0	9538	0.046459979855	0.01
0	9554	0.046479209547	0
0	9559	0.046484251704	0.01
0	9575	0.046564489547	0
0	9580	0.046639717998	0.01
0	9596	0.046649769547	0
0	9624	0.046934166026	0.01
0	9625	0.046934166026	0
0	9630	0.046960230039	0.01
0	9638	0.047019446026	0
0	9643	0.047091480838	0.01
0	9659	0.047104726026	0
0	9687	0.047303755503	0.01
0	9688	0.047303755503	0
0	9693	0.047333050649	0.01
0	9699	0.047370693584	0.02
0	9707	0.047389035503	0.01
0	9712	0.047394685936	0.02
0	9728	0.047474315503	0.01
0	9743	0.047559595503	0
0	9763	0.04771039549	0.01
0	9764	0.04771039549	0
0	9777	0.047783418257	0.01
0	9785	0.04779567549	0
0	9790	0.047847237118	0.01
0	9796	0.047849836893	0.02
0	9812	0.04788095549	0.01
0	9827	0.04796623549	0
0	9832	0.047974171971	0.01
0	9838	0.047997424473	0.02
0	9844	0.048014111937	0.03
0	9860	0.04805151549	0.02
0	9865	0.048069395774	0.03
0	9881	0.04813679549	0.02
0	9886	0.048200493011	0.03
0	9902	0.04822207549	0.02
0	9907	0.048247360659	0.03
0	9923	0.04830735549	0.02
0	9928	0.048351281223	0.03
0	9944	0.04839263549	0.02
0	9949	0.048413564154	0.03
0	9955	0.048437756118	0.04
0	9961	0.04847027772	0.05
0	9977	0.04847791549	0.04
0	9982	0.048490913519	0.05
0	9998	0.04856319549	0.04
0	10003	0.048579292085	0.05
0	10019	0.04864847549	0.04
0	10034	0.04873375549	0.03
0	10039	0.048744099702	0.04
0	10055	0.04881903549	0.03
0	10070	0.04890431549	0.02
0	10075	0.048943503622	0.03
0	10091	0.04898959549	0.02
0	10106	0.04907487549	0.01
0	10111	0.049080971617	0.02
0	10117	0.049093474876	0.03
0	10133	0.04916015549	0.02
0	10138	0.049205820926	0.03
0	10154	0.04924543549	0.02
0	10159	0.04927867331	0.03
0	10165	0.049311093221	0.04
0	10171	0.049325257424	0.05
0	10187	0.04933071549	0.04
0	10192	0.049344483568	0.05
0	10208	0.04941599549	0.04
0	10213	0.049470664835	0.05
0	10229	0.04950127549	0.04
0	10244	0.04958655549	0.03
0	10249	0.04959256477	0.04
0	10255	0.049642992763	0.05
0	10271	0.04967183549	0.04
0	10276	0.049705196455	0.05
0	10292	0.04975711549	0.04
0	10297	0.049788534279	0.05
0	10313	0.04984239549	0.04
0	10328	0.04992767549	0.03
0	10333	0.049972060619	0.04
0	10339	0.049992306495	0.05
0	10355	0.05001295549	0.04
0	10360	0.050015230928	0.05
0	10366	0.050030878505	0.06
0	10372	0.050048905935	0.07
0	10388	0.05009823549	0.06
0	10393	0.050115859994	0.07
0	10399	0.050129194056	0.08
0	10405	0.050173139595	0.09
0	10421	0.05018351549	0.08
0	10436	0.05026879549	0.07
0	10441	0.05030118203	0.08
0	10457	0.05035407549	0.07
0	10472	0.05043935549	0.06
0	10487	0.05052463549	0.05
0	10492	0.050583245625	0.06
0	10498	0.050586338254	0.07
0	10514	0.05060991549	0.06
0	10529	0.05069519549	0.05
0	10534	0.050731293732	0.06
0	10550	0.05078047549	0.05
0	10565	0.05086575549	0.04
0	10570	0.050868728033	0.05
0	10586	0.05095103549	0.04
0	10591	0.051006824343	0.05
0	10597	0.051016541111	0.06
0	10613	0.05103631549	0.05
0	10628	0.05112159549	0.04
0	10643	0.05120687549	0.03
0	10648	0.051250590307	0.04
0	10654	0.051275110116	0.05
0	10660	0.051283820974	0.06
0	10676	0.05129215549	0.05
0	10691	0.05137743549	0.04
0	10696	0.051422152621	0.05
0	10712	0.05146271549	0.04
0	10717	0.051502491797	0.05
0	10733	0.05154799549	0.04
0	10748	0.05163327549	0.03
0	10753	0.051634054423	0.04
0	10769	0.05171855549	0.03
0	10774	0.051721875931	0.04
0	10780	0.051726544705	0.05
0	10796	0.05180383549	0.04
0	10811	0.05188911549	0.03
0	10826	0.05197439549	0.02
0	10831	0.052053394345	0.03
0	10847	0.05205967549	0.02
0	10852	0.05207685993	0.03
0	10858	0.052111411888	0.04
0	10874	0.05214495549	0.03
0	10879	0.052145227359	0.04
0	10885	0.052172780153	0.05
0	10901	0.05223023549	0.04
0	10906	0.052285872001	0.05
0	10912	0.052296440718	0.06
0	10918	0.052302952004	0.07
0	10924	0.052304608613	0.08
0	10940	0.05231551549	0.07
0	10945	0.052385722715	0.08
0	10961	0.05240079549	0.07
0	10976	0.05248607549	0.06
0	10991	0.05257135549	0.05
0	10996	0.052650978567	0.06
0	11002	0.052651906869	0.07
0	11018	0.05265663549	0.06
0	11033	0.05274191549	0.05
0	11038	0.052762747844	0.06
0	11054	0.05282719549	0.05
0	11069	0.05291247549	0.04
0	11074	0.052941746804	0.05
0	11090	0.05299775549	0.04
0	11105	0.05308303549	0.03
0	11110	0.053095529675	0.04
0	11126	0.05316831549	0.03
0	11141	0.05325359549	0.02
0	11156	0.05333887549	0.01
0	11171	0.05342415549	0
0	11191	0.053511126785	0.01
0	11192	0.053511126785	0
0	11197	0.053544217773	0.01
0	11213	0.053596406785	0
0	11218	0.05366578682	0.01
0	11234	0.053681686785	0
0	11239	0.053754074874	0.01
0	11255	0.053766966785	0
0	11260	0.053774119094	0.01
0	11266	0.053780728295	0.02
0	11282	0.053852246785	0.01
0	11287	0.053852552943	0.02
0	11293	0.053919033718	0.03
0	11309	0.053937526785	0.02
0	11314	0.054005890291	0.03
0	11330	0.054022806785	0.02
0	11345	0.054108086785	0.01
0	11360	0.054193366785	0
0	11388	0.054385292669	0.01
0	11389	0.054385292669	0
0	11401	0.054540193837	0.01
0	11402	0.054540193837	0
0	11430	0.054749349494	0.01
0	11431	0.054749349494	0
0	11443	0.05484261068	0.01
0	11444	0.05484261068	0
0	11449	0.054883883667	0.01
0	11455	0.054908525249	0.02
0	11471	0.05492789068	0.01
0	11486	0.05501317068	0
0	11514	0.055234417347	0.01
0	11515	0.055234417347	0
0	11520	0.055295145276	0.01
0	11528	0.055319697347	0
0	11533	0.055321502987	0.01
0	11549	0.055404977347	0
0	11569	0.055532591864	0.01
0	11570	0.055532591864	0
0	11598	0.055830811932	0.01
0	11599	0.055830811932	0
0	11604	0.055898592132	0.01
0	11612	0.055916091932	0
0	11640	0.056182256151	0.01
0	11641	0.056182256151	0
0	11653	0.056307979851	0.01
0	11654	0.056307979851	0
0	11674	0.056468525727	0.01
0	11675	0.056468525727	0
0	11688	0.056535109976	0.01
0	11696	0.056553805727	0
0	11701	0.05663465634	0.01
0	11717	0.056639085727	0
0	11737	0.056757944386	0.01
0	11738	0.056757944386	0
0	11766	0.056965320532	0.01
0	11767	0.056965320532	0
0	11772	0.057034263986	0.01
0	11780	0.057050600532	0
0	11785	0.057068939316	0.01
0	11801	0.057135880532	0
0	11821	0.05725508248	0.01
0	11822	0.05725508248	0
0	11850	0.05744409265	0.01
0	11851	0.05744409265	0
0	11856	0.057465702272	0.01
0	11864	0.05752937265	0
0	11869	0.057561903465	0.01
0	11885	0.05761465265	0
0	11905	0.057710327713	0.01
0	11906	0.057710327713	0
0	11911	0.057711660237	0.01
0	11927	0.057795607713	0
0	11955	0.05807762597	0.01
0	11956	0.05807762597	0
0	11961	0.058120279551	0.01
0	11969	0.05816290597	0
0	11989	0.058318554441	0.01
0	11990	0.058318554441	0
0	12003	0.05833458785	0.01
0	12011	0.058403834441	0
0	12016	0.058486194743	0.01
0	12032	0.058489114441	0
0	12060	0.058886989708	0.01
0	12061	0.058886989708	0
0	12081	0.059307175651	0.01
0	12082	0.059307175651	0
0	12087	0.059372255385	0.01
0	12095	0.059392455651	0
0	12115	0.059512322955	0.01
0	12116	0.059512322955	0
0	12129	0.059581117303	0.01
0	12135	0.059581522935	0.02
0	12143	0.059597602955	0.01
0	12158	0.059682882955	0
0	12163	0.059683541644	0.01
0	12169	0.059714941434	0.02
0	12175	0.059760920566	0.03
0	12191	0.059768162955	0.02
0	12196	0.059813767289	0.03
0	12202	0.059828489793	0.04
0	12218	0.059853442955	0.03
0	12223	0.05988439056	0.04
0	12239	0.059938722955	0.03
0	12254	0.060024002955	0.02
0	12259	0.060057053898	0.03
0	12265	0.060092413556	0.04
0	12281	0.060109282955	0.03
0	12286	0.060113466885	0.04
0	12292	0.060164738349	0.05
0	12308	0.060194562955	0.04
0	12313	0.060236342881	0.05
0	12319	0.060249200905	0.06
0	12325	0.060274602043	0.07
0	12341	0.060279842955	0.06
0	12356	0.060365122955	0.05
0	12371	0.060450402955	0.04
0	12386	0.060535682955	0.03
0	12401	0.060620962955	0.02
0	12406	0.06066936537	0.03
0	12412	0.060679662206	0.04
0	12428	0.060706242955	0.03
0	12433	0.060731770088	0.04
0	12449	0.060791522955	0.03
0	12464	0.060876802955	0.02
0	12469	0.060929959122	0.03
0	12485	0.060962082955	0.02
0	12490	0.061014172752	0.03
0	12506	0.061047362955	0.02
0	12521	0.061132642955	0.01
0	12536	0.061217922955	0
0	12556	0.061375066852	0.01
0	12557	0.061375066852	0
0	12570	0.061417166182	0.01
0	12578	0.061460346852	0
0	12606	0.061741162479	0.01
0	12607	0.061741162479	0
0	12619	0.061896691915	0.01
0	12620	0.061896691915	0
0	12648	0.062133730673	0.01
0	12649	0.062133730673	0
0	12654	0.062186726831	0.01
0	12662	0.062219010673	0
0	12682	0.062335469806	0.01
0	12683	0.062335469806	0
0	12688	0.06237998474	0.01
0	12707	0.062420503028	0.02
0	12710	0.062420749806	0.01
0	12715	0.062471502111	0.02
0	12721	0.06247996006	0.03
0	12737	0.062506029806	0.02
0	12742	0.062515889451	0.03
0	12748	0.062568186216	0.04
0	12764	0.062591309806	0.03
0	12779	0.062676589806	0.02
0	12784	0.062717449432	0.03
0	12790	0.062743876478	0.04
0	12806	0.062761869806	0.03
0	12821	0.062847149806	0.02
0	12836	0.062932429806	0.01
0	12841	0.063004533658	0.02
0	12857	0.063017709806	0.01
0	12862	0.063018746209	0.02
0	12868	0.06305809645	0.03
0	12874	0.063063587187	0.04
0	12890	0.063102989806	0.03
0	12905	0.063188269806	0.02
0	12920	0.063273549806	0.01
0	12935	0.063358829806	0
0	12940	0.063369073165	0.01
0	12956	0.063444109806	0
0	12961	0.063498387951	0.01
0	12967	0.06349979261	0.02
0	12973	0.063500941935	0.03
0	12989	0.063529389806	0.02
0	12994	0.063577184303	0.03
0	13010	0.063614669806	0.02
0	13025	0.063699949806	0.01
0	13030	0.063724404719	0.02
0	13036	0.063760728941	0.03
0	13042	0.063776622259	0.04
0	13058	0.063785229806	0.03
0	13073	0.063870509806	0.02
0	13088	0.063955789806	0.01
0	13093	0.063991060805	0.02
0	13099	0.063999347032	0.03
0	13105	0.064028198303	0.04
0	13111	0.064037585758	0.05
0	13127	0.064041069806	0.04
0	13142	0.064126349806	0.03
0	13147	0.064150723635	0.04
0	13163	0.064211629806	0.03
0	13168	0.064262212377	0.04
0	13184	0.064296909806	0.03
0	13199	0.064382189806	0.02
0	13204	0.064428508955	0.03
0	13210	0.064456661357	0.04
0	13226	0.064467469806	0.03
0	13231	0.064513250811	0.04
0	13247	0.064552749806	0.03
0	13252	0.064567816582	0.04
0	13268	0.064638029806	0.03
0	13273	0.064707303491	0.04
0	13289	0.064723309806	0.03
0	13294	0.064788805324	0.04
0	13310	0.064808589806	0.03
0	13325	0.064893869806	0.02
0	13330	0.064965767306	0.03
0	13346	0.064979149806	0.02
0	13361	0.065064429806	0.01
0	13376	0.065149709806	0
0	13381	0.065162773063	0.01
0	13387	0.065210420921	0.02
0	13403	0.065234989806	0.01
0	13418	0.065320269806	0
0	13423	0.065340265485	0.01
0	13429	0.065350418893	0.02
0	13435	0.065381934896	0.03
0	13451	0.065405549806	0.02
0	13456	0.065411525083	0.03
0	13462	0.065425621871	0.04
0	13478	0.065490829806	0.03
0	13483	0.065515254792	0.04
0	13489	0.065520951445	0.05
0	13505	0.065576109806	0.04
0	13510	0.065585668915	0.05
0	13516	0.065621565047	0.06
0	13532	0.065661389806	0.05
0	13537	0.065688495334	0.06
0	13543	0.06571889249	0.07
0	13559	0.065746669806	0.06
0	13564	0.065780236399	0.07
0	13580	0.065831949806	0.06
0	13585	0.065841142845	0.07
0	13597	0.065915501164	0.08
0	13607	0.065917229806	0.07
0	13622	0.066002509806	0.06
0	13627	0.066030475303	0.07
0	13643	0.066087789806	0.06
0	13648	0.06608881768	0.07
0	13664	0.066173069806	0.06
0	13669	0.066207767305	0.07
0	13685	0.066258349806	0.06
0	13700	0.066343629806	0.05
0	13705	0.066399251531	0.06
0	13721	0.066428909806	0.05
0	13726	0.066432591865	0.06
0	13732	0.066489408913	0.07
0	13748	0.066514189806	0.06
0	13753	0.066537200712	0.07
0	13769	0.066599469806	0.06
0	13784	0.066684749806	0.05
0	13789	0.066712572177	0.06
0	13795	0.066732557731	0.07
0	13811	0.066770029806	0.06
0	13816	0.066803758538	0.07
0	13832	0.066855309806	0.06
0	13847	0.066940589806	0.05
0	13852	0.066959133088	0.06
0	13858	0.066968166812	0.07
0	13864	0.066974019602	0.08
0	13880	0.067025869806	0.07
0	13885	0.067081912293	0.08
0	13901	0.067111149806	0.07
0	13916	0.067196429806	0.06
0	13921	0.06720131363	0.07
0	13927	0.067224455727	0.08
0	13943	0.067281709806	0.07
0	13958	0.067366989806	0.06
0	13963	0.06737527725	0.07
0	13979	0.067452269806	0.06
0	13994	0.067537549806	0.05
0	13999	0.067563189093	0.06
0	14015	0.067622829806	0.05
0	14030	0.067708109806	0.04
0	14035	0.067713430372	0.05
0	14051	0.067793389806	0.04
0	14056	0.067827799434	0.05
0	14062	0.067857831942	0.06
0	14074	0.067877478131	0.07
0	14084	0.067878669806	0.06
0	14089	0.067924288776	0.07
0	14095	0.067931530687	0.08
0	14111	0.067963949806	0.07
0	14116	0.068020106752	0.08
0	14122	0.068021080293	0.09
0	14138	0.068049229806	0.08
0	14143	0.068052938678	0.09
0	14159	0.068134509806	0.08
0	14174	0.068219789806	0.07
0	14179	0.068275547077	0.08
0	14195	0.068305069806	0.07
0	14200	0.06832188608	0.08
0	14206	0.068336211382	0.09
0	14212	0.068358158198	0.1
0	14228	0.068390349806	0.09
0	14243	0.068475629806	0.08
0	14248	0.068509204358	0.09
0	14264	0.068560909806	0.08
0	14269	0.068570796286	0.09
0	14285	0.068646189806	0.08
0	14300	0.068731469806	0.07
0	14315	0.068816749806	0.06
0	14320	0.068830041147	0.07
0	14326	0.068834604952	0.08
0	14342	0.068902029806	0.07
0	14347	0.0689601943	0.08
0	14363	0.068987309806	0.07
0	14378	0.069072589806	0.06
0	14383	0.069121036085	0.07
0	14399	0.069157869806	0.06
0	14404	0.069188531182	0.07
0	14410	0.069196539068	0.08
0	14426	0.069243149806	0.07
0	14431	0.069259932281	0.08
0	14447	0.069328429806	0.07
0	14452	0.069333086815	0.08
0	14468	0.069413709806	0.07
0	14483	0.069498989806	0.06
0	14488	0.069547396785	0.07
0	14507	0.069584041914	0.08
0	14510	0.069584269806	0.07
0	14515	0.069651065102	0.08
0	14531	0.069669549806	0.07
0	14536	0.069737231851	0.08
0	14552	0.069754829806	0.07
0	14557	0.069790772286	0.08
0	14573	0.069840109806	0.07
0	14588	0.069925389806	0.06
0	14603	0.070010669806	0.05
0	14618	0.070095949806	0.04
0	14623	0.070111253169	0.05
0	14629	0.070130382774	0.06
0	14645	0.070181229806	0.05
0	14650	0.070234107283	0.06
0	14666	0.070266509806	0.05
0	14671	0.070298598132	0.06
0	14677	0.070302198415	0.07
0	14693	0.070351789806	0.06
0	14708	0.070437069806	0.05
0	14713	0.070455283257	0.06
0	14719	0.070511565777	0.07
0	14735	0.070522349806	0.06
0	14740	0.070592855613	0.07
0	14756	0.070607629806	0.06
0	14761	0.070664194041	0.07
0	14767	0.070681613557	0.08
0	14783	0.070692909806	0.07
0	14788	0.070758438891	0.08
0	14794	0.07077396745	0.09
0	14810	0.070778189806	0.08
0	14825	0.070863469806	0.07
0	14830	0.070888346988	0.08
0	14846	0.070948749806	0.07
0	14851	0.070993175898	0.08
0	14857	0.071025692985	0.09
0	14873	0.071034029806	0.08
0	14878	0.071103177223	0.09
0	14884	0.071116972546	0.1
0	14900	0.071119309806	0.09
0	14905	0.071156378303	0.1
0	14921	0.071204589806	0.09
0	14926	0.071206247536	0.1
0	14932	0.071222148738	0.11
0	14948	0.071289869806	0.1
0	14963	0.071375149806	0.09
0	14978	0.071460429806	0.08
0	14983	0.071535431687	0.09
0	14999	0.071545709806	0.08
0	15004	0.071552851559	0.09
0	15010	0.071573570077	0.1
0	15016	0.071587428759	0.11
0	15032	0.071630989806	0.1
0	15047	0.071716269806	0.09
0	15062	0.071801549806	0.08
0	15067	0.071821752752	0.09
0	15083	0.071886829806	0.08
0	15088	0.071908246563	0.09
0	15104	0.071972109806	0.08
0	15109	0.071986730265	0.09
0	15115	0.071996410012	0.1
0	15131	0.072057389806	0.09
0	15136	0.072057458296	0.1
0	15152	0.072142669806	0.09
0	15167	0.072227949806	0.08
0	15172	0.072298859939	0.09
0	15188	0.072313229806	0.08
0	15203	0.072398509806	0.07
0	15218	0.072483789806	0.06
0	15223	0.072512602108	0.07
0	15229	0.072521263807	0.08
0	15245	0.072569069806	0.07
0	15250	0.072582624228	0.08
0	15266	0.072654349806	0.07
0	15281	0.072739629806	0.06
0	15286	0.072743757428	0.07
0	15302	0.072824909806	0.06
0	15307	0.072872553626	0.07
0	15323	0.072910189806	0.06
0	15338	0.072995469806	0.05
0	15353	0.073080749806	0.04
0	15358	0.073082217253	0.05
0	15364	0.073133137502	0.06
0	15370	0.073142949454	0.07
0	15386	0.073166029806	0.06
0	15401	0.073251309806	0.05
0	15416	0.073336589806	0.04
0	15421	0.073377336418	0.05
0	15437	0.073421869806	0.04
0	15442	0.073432902309	0.05
0	15458	0.073507149806	0.04
0	15463	0.073550028678	0.05
0	15479	0.073592429806	0.04
0	15484	0.073614126033	0.05
0	15500	0.073677709806	0.04
0	15505	0.073734397411	0.05
0	15521	0.073762989806	0.04
0	15526	0.073821194409	0.05
0	15542	0.073848269806	0.04
0	15547	0.073860902504	0.05
0	15563	0.073933549806	0.04
0	15568	0.073986866621	0.05
0	15584	0.074018829806	0.04
0	15599	0.074104109806	0.03
0	15604	0.074128244954	0.04
0	15610	0.074130989164	0.05
0	15626	0.074189389806	0.04
0	15631	0.07423206608	0.05
0	15647	0.074274669806	0.04
0	15662	0.074359949806	0.03
0	15667	0.07436351829	0.04
0	15673	0.074390964642	0.05
0	15689	0.074445229806	0.04
0	15704	0.074530509806	0.03
0	15709	0.074536620663	0.04
0	15715	0.074554120168	0.05
0	15721	0.074555101612	0.06
0	15737	0.074615789806	0.05
0	15752	0.074701069806	0.04
0	15757	0.074714257224	0.05
0	15763	0.074751115518	0.06
0	15779	0.074786349806	0.05
0	15794	0.074871629806	0.04
0	15809	0.074956909806	0.03
0	15824	0.075042189806	0.02
0	15829	0.075070941016	0.03
0	15835	0.075097450326	0.04
0	15851	0.075127469806	0.03
0	15856	0.07515872487	0.04
0	15872	0.075212749806	0.03
0	15877	0.075228727434	0.04
0	15893	0.075298029806	0.03
0	15898	0.075318127574	0.04
0	15914	0.075383309806	0.03
0	15929	0.075468589806	0.02
0	15944	0.075553869806	0.01
0	15949	0.075625435096	0.02
0	15965	0.075639149806	0.01
0	15980	0.075724429806	0
0	16000	0.075820432787	0.01
0	16001	0.075820432787	0
0	16014	0.075902034643	0.01
0	16022	0.075905712787	0
0	16027	0.075963140399	0.01
0	16033	0.075973395588	0.02
0	16049	0.075990992787	0.01
0	16064	0.076076272787	0
0	16092	0.076276789845	0.01
0	16093	0.076276789845	0
0	16105	0.076373990934	0.01
0	16106	0.076373990934	0
0	16126	0.076459734444	0.01
0	16127	0.076459734444	0
0	16155	0.076658528389	0.01
0	16156	0.076658528389	0
0	16176	0.07683043532	0.01
0	16177	0.07683043532	0
0	16182	0.076847589183	0.01
0	16190	0.07691571532	0
0	16218	0.077087107162	0.01
0	16219	0.077087107162	0
0	16239	0.077575457061	0.01
0	16240	0.077575457061	0
0	16258	0.077744480556	0.01
0	16259	0.077744480556	0
0	16266	0.077753363794	0.01
0	16272	0.07777072945	0.02
0	16278	0.077780651603	0.03
0	16286	0.077829760556	0.02
0	16291	0.077879779554	0.03
0	16307	0.077915040556	0.02
0	16312	0.077980184671	0.03
0	16328	0.078000320556	0.02
0	16333	0.078031006616	0.03
0	16349	0.078085600556	0.02
0	16364	0.078170880556	0.01
0	16379	0.078256160556	0
0	16384	0.078329184582	0.01
0	16390	0.078335661151	0.02
0	16406	0.078341440556	0.01
0	16421	0.078426720556	0
0	16449	0.078611721597	0.01
0	16450	0.078611721597	0
0	16455	0.078666891958	0.01
0	16463	0.078697001597	0
0	16468	0.078726200118	0.01
0	16474	0.078756132956	0.02
0	16490	0.078782281597	0.01
0	16505	0.078867561597	0
0	16510	0.078886216699	0.01
0	16526	0.078952841597	0
0	16546	0.079075289614	0.01
0	16547	0.079075289614	0
0	16567	0.079210861465	0.01
0	16568	0.079210861465	0
0	16573	0.079214248651	0.01
0	16587	0.079250919166	0.02
0	16595	0.079296141465	0.01
0	16610	0.079381421465	0
0	16638	0.079570295353	0.01
0	16639	0.079570295353	0
0	16644	0.07958305271	0.01
0	16650	0.079626960409	0.02
0	16658	0.079655575353	0.01
0	16663	0.07968563729	0.02
0	16669	0.079729752771	0.03
0	16685	0.079740855353	0.02
0	16690	0.0797794737	0.03
0	16696	0.079781120028	0.04
0	16712	0.079826135353	0.03
0	16717	0.079857016505	0.04
0	16723	0.079877501732	0.05
0	16739	0.079911415353	0.04
0	16754	0.079996695353	0.03
0	16759	0.080064165779	0.04
0	16775	0.080081975353	0.03
0	16780	0.080115458478	0.04
0	16796	0.080167255353	0.03
0	16801	0.080192304736	0.04
0	16817	0.080252535353	0.03
0	16832	0.080337815353	0.02
0	16847	0.080423095353	0.01
0	16852	0.080457223562	0.02
0	16868	0.080508375353	0.01
0	16873	0.08057125145	0.02
0	16879	0.080581744725	0.03
0	16895	0.080593655353	0.02
0	16900	0.080675694924	0.03
0	16916	0.080678935353	0.02
0	16931	0.080764215353	0.01
0	16946	0.080849495353	0
0	16966	0.080966286884	0.01
0	16967	0.080966286884	0
0	16972	0.080976653968	0.01
0	16988	0.081051566884	0
0	17008	0.081180283387	0.01
0	17009	0.081180283387	0
0	17014	0.081189937515	0.01
0	17028	0.081250480893	0.02
0	17034	0.081256240185	0.03
0	17042	0.081265563387	0.02
0	17047	0.081295796745	0.03
0	17053	0.081304847492	0.04
0	17059	0.081331340986	0.05
0	17075	0.081350843387	0.04
0	17080	0.081358413425	0.05
0	17096	0.081436123387	0.04
0	17101	0.081453725679	0.05
0	17117	0.081521403387	0.04
0	17132	0.081606683387	0.03
0	17137	0.081636679895	0.04
0	17143	0.081640043287	0.05
0	17159	0.081691963387	0.04
0	17164	0.081713935289	0.05
0	17170	0.081715508201	0.06
0	17186	0.081777243387	0.05
0	17191	0.081787472691	0.06
0	17197	0.081843473528	0.07
0	17213	0.081862523387	0.06
0	17228	0.081947803387	0.05
0	17233	0.081948407745	0.06
0	17239	0.08195545794	0.07
0	17255	0.082033083387	0.06
0	17260	0.082034113849	0.07
0	17266	0.082063141191	0.08
0	17272	0.08206644159	0.09
0	17278	0.082091436672	0.1
0	17294	0.082118363387	0.09
0	17299	0.082178222859	0.1
0	17315	0.082203643387	0.09
0	17320	0.082207417466	0.1
0	17336	0.082288923387	0.09
0	17341	0.082354859688	0.1
0	17347	0.08236890726	0.11
0	17363	0.082374203387	0.1
0	17368	0.082416104069	0.11
0	17374	0.082417314994	0.12
0	17390	0.082459483387	0.11
0	17395	0.082484850581	0.12
0	17401	0.082497122082	0.13
0	17417	0.082544763387	0.12
0	17432	0.082630043387	0.11
0	17447	0.082715323387	0.1
0	17462	0.082800603387	0.09
0	17477	0.082885883387	0.08
0	17482	0.08289687843	0.09
0	17498	0.082971163387	0.08
0	17503	0.0829932377	0.09
0	17509	0.083021295293	0.1
0	17525	0.083056443387	0.09
0	17540	0.083141723387	0.08
0	17555	0.083227003387	0.07
0	17570	0.083312283387	0.06
0	17575	0.083387251505	0.07
0	17591	0.083397563387	0.06
0	17596	0.083434143638	0.07
0	17612	0.083482843387	0.06
0	17627	0.083568123387	0.05
0	17642	0.083653403387	0.04
0	17657	0.083738683387	0.03
0	17672	0.083823963387	0.02
0	17677	0.083898171638	0.03
0	17683	0.083902845128	0.04
0	17699	0.083909243387	0.03
0	17704	0.083955448208	0.04
0	17710	0.08399256438	0.05
0	17726	0.083994523387	0.04
0	17731	0.084010352056	0.05
0	17747	0.084079803387	0.04
0	17762	0.084165083387	0.03
0	17767	0.084188445523	0.04
0	17783	0.084250363387	0.03
0	17788	0.084290267281	0.04
0	17804	0.084335643387	0.03
0	17819	0.084420923387	0.02
0	17824	0.084454785624	0.03
0	17840	0.084506203387	0.02
0	17845	0.084522179968	0.03
0	17861	0.084591483387	0.02
0	17866	0.084624351803	0.03
0	17882	0.084676763387	0.02
0	17897	0.084762043387	0.01
0	17912	0.084847323387	0
0	17940	0.085079134188	0.01
0	17941	0.085079134188	0
0	17946	0.085125036981	0.01
0	17952	0.085131790397	0.02
0	17960	0.085164414188	0.01
0	17965	0.085169296591	0.02
0	17981	0.085249694188	0.01
0	17986	0.085322190478	0.02
0	18002	0.085334974188	0.01
0	18017	0.085420254188	0
0	18022	0.085484056585	0.01
0	18038	0.085505534188	0
0	18043	0.085518080307	0.01
0	18049	0.085525385473	0.02
0	18055	0.085553015992	0.03
0	18071	0.085590814188	0.02
0	18076	0.085668082251	0.03
0	18092	0.085676094188	0.02
0	18107	0.085761374188	0.01
0	18112	0.085776702582	0.02
0	18118	0.085824623851	0.03
0	18134	0.085846654188	0.02
0	18139	0.085852868522	0.03
0	18155	0.085931934188	0.02
0	18160	0.085953361853	0.03
0	18176	0.086017214188	0.02
0	18181	0.086062981109	0.03
0	18197	0.086102494188	0.02
0	18212	0.086187774188	0.01
0	18227	0.086273054188	0
0	18232	0.086324545202	0.01
0	18248	0.086358334188	0
0	18253	0.086397382959	0.01
0	18269	0.086443614188	0
0	18289	0.086589756816	0.01
0	18290	0.086589756816	0
0	18303	0.086644937028	0.01
0	18311	0.086675036816	0
0	18316	0.086713788417	0.01
0	18332	0.086760316816	0
0	18337	0.086794686387	0.01
0	18353	0.086845596816	0
0	18358	0.086850519066	0.01
0	18364	0.086884353678	0.02
0	18380	0.086930876816	0.01
0	18395	0.087016156816	0
0	18400	0.087057265642	0.01
0	18416	0.087101436816	0
0	18421	0.087179878863	0.01
0	18437	0.087186716816	0
0	18457	0.087313906459	0.01
0	18458	0.087313906459	0
0	18471	0.087367496339	0.01
0	18479	0.087399186459	0
0	18484	0.087426762081	0.01
0	18490	0.087471476071	0.02
0	18506	0.087484466459	0.01
0	18521	0.087569746459	0
0	18549	0.087818540579	0.01
0	18550	0.087818540579	0
0	18570	0.087994949318	0.01
0	18571	0.087994949318	0
0	18576	0.088040073198	0.01
0	18584	0.088080229318	0
0	18612	0.088299055813	0.01
0	18613	0.088299055813	0
0	18618	0.088349728134	0.01
0	18624	0.088354438061	0.02
0	18632	0.088384335813	0.01
0	18647	0.088469615813	0
0	18652	0.088488640035	0.01
0	18658	0.088515118262	0.02
0	18674	0.088554895813	0.01
0	18679	0.088574735451	0.02
0	18685	0.088617586211	0.03
0	18701	0.088640175813	0.02
0	18716	0.088725455813	0.01
0	18731	0.088810735813	0
0	18742	0.088894500659	0.01
0	18752	0.088896015813	0
0	18772	0.089063222488	0.01
0	18773	0.089063222488	0
0	18786	0.089092959841	0.01
0	18794	0.089148502488	0
0	18822	0.089516261421	0.01
0	18823	0.089516261421	0
0	18828	0.089564349243	0.01
0	18836	0.089601541421	0
0	18864	0.089911634814	0.01
0	18865	0.089911634814	0
0	18877	0.090031083808	0.01
0	18878	0.090031083808	0
0	18906	0.090266417285	0.01
0	18907	0.090266417285	0
0	18927	0.090493788002	0.01
0	18928	0.090493788002	0
0	18933	0.090528964741	0.01
0	18939	0.090541868591	0.02
0	18947	0.090579068002	0.01
0	18962	0.090664348002	0
0	18990	0.091024840616	0.01
0	18991	0.091024840616	0
0	18996	0.091052487888	0.01
0	19002	0.091081178798	0.02
0	19008	0.091107090024	0.03
0	19016	0.091110120616	0.02
0	19021	0.091118284478	0.03
0	19027	0.091185522768	0.04
0	19043	0.091195400616	0.03
0	19058	0.091280680616	0.02
0	19073	0.091365960616	0.01
0	19088	0.091451240616	0
0	19093	0.091487019595	0.01
0	19109	0.091536520616	0
0	19137	0.091709141013	0.01
0	19138	0.091709141013	0
0	19143	0.091735722668	0.01
0	19149	0.091780056108	0.02
0	19157	0.091794421013	0.01
0	19172	0.091879701013	0
0	19177	0.091897099681	0.01
0	19183	0.091945751595	0.02
0	19189	0.091951764432	0.03
0	19205	0.091964981013	0.02
0	19220	0.092050261013	0.01
0	19235	0.092135541013	0
0	19240	0.09220032754	0.01
0	19256	0.092220821013	0
0	19276	0.092331523848	0.01
0	19277	0.092331523848	0
0	19282	0.092343606988	0.01
0	19298	0.092416803848	0
0	19318	0.092557077227	0.01
0	19319	0.092557077227	0
0	19339	0.092656807119	0.01
0	19340	0.092656807119	0
0	19345	0.092688612574	0.01
0	19351	0.092702862869	0.02
0	19367	0.092742087119	0.01
0	19372	0.092750514451	0.02
0	19378	0.09279739402	0.03
0	19394	0.092827367119	0.02
0	19399	0.092844281836	0.03
0	19405	0.092883497965	0.04
0	19421	0.092912647119	0.03
0	19436	0.092997927119	0.02
0	19441	0.093021643873	0.03
0	19457	0.093083207119	0.02
0	19462	0.093135623414	0.03
0	19468	0.093162778993	0.04
0	19484	0.093168487119	0.03
0	19499	0.093253767119	0.02
0	19504	0.093321514716	0.03
0	19520	0.093339047119	0.02
0	19525	0.093340371188	0.03
0	19531	0.093410475739	0.04
0	19547	0.093424327119	0.03
0	19552	0.093470130731	0.04
0	19558	0.093505262859	0.05
0	19574	0.093509607119	0.04
0	19579	0.093541570743	0.05
0	19595	0.093594887119	0.04
0	19610	0.093680167119	0.03
0	19615	0.093758693331	0.04
0	19631	0.093765447119	0.03
0	19646	0.093850727119	0.02
0	19661	0.093936007119	0.01
0	19666	0.093941445958	0.02
0	19672	0.093984812444	0.03
0	19678	0.094011959441	0.04
0	19694	0.094021287119	0.03
0	19709	0.094106567119	0.02
0	19714	0.094146049613	0.03
0	19730	0.094191847119	0.02
0	19735	0.094215843368	0.03
0	19751	0.094277127119	0.02
0	19756	0.094296892683	0.03
0	19772	0.094362407119	0.02
0	19787	0.094447687119	0.01
0	19802	0.094532967119	0
0	19807	0.094582635218	0.01
0	19813	0.094605139467	0.02
0	19829	0.094618247119	0.01
0	19844	0.094703527119	0
0	19849	0.094705651032	0.01
0	19855	0.094785173252	0.02
0	19871	0.094788807119	0.01
0	19886	0.094874087119	0
0	19906	0.094987131702	0.01
0	19907	0.094987131702	0
0	19920	0.095060454236	0.01
0	19928	0.095072411702	0
0	19956	0.095342145409	0.01
0	19957	0.095342145409	0
0	19962	0.095385036593	0.01
0	19970	0.095427425409	0
0	19990	0.095523972444	0.01
0	19991	0.095523972444	0
0	19996	0.095526465254	0.01
0	20012	0.095609252444	0
0	20017	0.095646720988	0.01
0	20023	0.095662835246	0.02
0	20039	0.095694532444	0.01
0	20054	0.095779812444	0
0	20082	0.096006929651	0.01
0	20083	0.096006929651	0
0	20088	0.096021068962	0.01
0	20096	0.096092209651	0
0	20124	0.096539581904	0.01
0	20125	0.096539581904	0
0	20137	0.096662653789	0.01
0	20138	0.096662653789	0
0	20151	0.096722769254	0.01
0	20159	0.096747933789	0
0	20179	0.096846237242	0.01
0	20180	0.096846237242	0
0	20185	0.09685358788	0.01
0	20201	0.096931517242	0
0	20206	0.096948198054	0.01
0	20212	0.096982841387	0.02
0	20228	0.097016797242	0.01
0	20233	0.09709428721	0.02
0	20249	0.097102077242	0.01
0	20254	0.097110816511	0.02
0	20260	0.097170149568	0.03
0	20276	0.097187357242	0.02
0	20281	0.097224189838	0.03
0	20297	0.097272637242	0.02
0	20302	0.097343287983	0.03
0	20321	0.097357362499	0.04
0	20324	0.097357917242	0.03
0	20329	0.097404896466	0.04
0	20345	0.097443197242	0.03
0	20350	0.097497560326	0.04
0	20356	0.097508099939	0.05
0	20372	0.097528477242	0.04
0	20377	0.097556357461	0.05
0	20393	0.097613757242	0.04
0	20408	0.097699037242	0.03
0	20423	0.097784317242	0.02
0	20438	0.097869597242	0.01
0	20443	0.097878889069	0.02
0	20459	0.097954877242	0.01
0	20474	0.098040157242	0
0	20479	0.098104636748	0.01
0	20485	0.098112155929	0.02
0	20501	0.098125437242	0.01
0	20516	0.098210717242	0
0	20544	0.098455718268	0.01
0	20545	0.098455718268	0
0	20550	0.098457667197	0.01
0	20556	0.098536828106	0.02
0	20564	0.098540998268	0.01
0	20579	0.098626278268	0
0	20607	0.098925919115	0.01
0	20608	0.098925919115	0
0	20613	0.098958053145	0.01
0	20619	0.098974126149	0.02
0	20627	0.099011199115	0.01
0	20632	0.09906383145	0.02
0	20638	0.09909376675	0.03
0	20654	0.099096479115	0.02
0	20669	0.099181759115	0.01
0	20684	0.099267039115	0
0	20689	0.099320837761	0.01
0	20695	0.099345112305	0.02
0	20711	0.099352319115	0.01
0	20716	0.099397323435	0.02
0	20732	0.099437599115	0.01
0	20737	0.099484052637	0.02
0	20753	0.099522879115	0.01
0	20758	0.099564366314	0.02
0	20774	0.099608159115	0.01
0	20789	0.099693439115	0
0	20817	0.099936307145	0.01
0	20818	0.099936307145	0
0	20823	0.099968004883	0.01
0	20829	0.099999888988	0.02
0	20837	0.100021587145	0.01
0	20842	0.100060667464	0.02
0	20858	0.100106867145	0.01
0	20873	0.100192147145	0
0	20901	0.100411573819	0.01
0	20902	0.100411573819	0
0	20907	0.10046294238	0.01
0	20913	0.100465525184	0.02
0	20919	0.100494082076	0.03
0	20927	0.100496853819	0.02
0	20942	0.100582133819	0.01
0	20957	0.100667413819	0
0	20962	0.100713046747	0.01
0	20978	0.100752693819	0
0	20983	0.100783541679	0.01
0	20999	0.100837973819	0
0	21004	0.100906850552	0.01
0	21020	0.100923253819	0
0	21025	0.100944012127	0.01
0	21031	0.100976553799	0.02
0	21047	0.101008533819	0.01
0	21052	0.101023240233	0.02
0	21068	0.101093813819	0.01
0	21083	0.101179093819	0
0	21088	0.10124848952	0.01
0	21104	0.101264373819	0
0	21109	0.101322927346	0.01
0	21115	0.101325615408	0.02
0	21131	0.101349653819	0.01
0	21146	0.101434933819	0
0	21151	0.101464483135	0.01
0	21167	0.101520213819	0
0	21172	0.101562735969	0.01
0	21178	0.101603308603	0.02
0	21194	0.101605493819	0.01
0	21199	0.10164328813	0.02
0	21215	0.101690773819	0.01
0	21230	0.101776053819	0
0	21250	0.101901199443	0.01
0	21251	0.101901199443	0
0	21279	0.102242691933	0.01
0	21280	0.102242691933	0
0	21300	0.102440973191	0.01
0	21301	0.102440973191	0
0	21306	0.102459434778	0.01
0	21312	0.102464426338	0.02
0	21320	0.102526253191	0.01
0	21335	0.102611533191	0
0	21353	0.102696178944	0.01
0	21356	0.102696813191	0
0	21361	0.102725434004	0.01
0	21367	0.102765472157	0.02
0	21383	0.102782093191	0.01
0	21388	0.102824555679	0.02
0	21404	0.102867373191	0.01
0	21419	0.102952653191	0
0	21439	0.103044588611	0.01
0	21440	0.103044588611	0
0	21445	0.103055640199	0.01
0	21459	0.103127476783	0.02
0	21467	0.103129868611	0.01
0	21472	0.103170320886	0.02
0	21488	0.103215148611	0.01
0	21493	0.103241784305	0.02
0	21509	0.103300428611	0.01
0	21514	0.103376529187	0.02
0	21530	0.103385708611	0.01
0	21535	0.103425440028	0.02
0	21551	0.103470988611	0.01
0	21556	0.103539544361	0.02
0	21572	0.103556268611	0.01
0	21577	0.103615065543	0.02
0	21593	0.103641548611	0.01
0	21598	0.103712453402	0.02
0	21614	0.103726828611	0.01
0	21629	0.103812108611	0
0	21657	0.104001965164	0.01
0	21658	0.104001965164	0
0	21670	0.104125934972	0.01
0	21671	0.104125934972	0
0	21699	0.104349298957	0.01
0	21700	0.104349298957	0
0	21705	0.104372230674	0.01
0	21713	0.104434578957	0
0	21718	0.104485276394	0.01
0	21734	0.104519858957	0
0	21739	0.10452708556	0.01
0	21755	0.104605138957	0
0	21760	0.104628980878	0.01
0	21776	0.104690418957	0
0	21781	0.104741756921	0.01
0	21797	0.104775698957	0
0	21802	0.104821244205	0.01
0	21818	0.104860978957	0
0	21846	0.105032634886	0.01
0	21847	0.105032634886	0
0	21852	0.105064474188	0.01
0	21860	0.105117914886	0
0	21865	0.105142929858	0.01
0	21871	0.105158978269	0.02
0	21877	0.105192204331	0.03
0	21893	0.105203194886	0.02
0	21908	0.105288474886	0.01
0	21923	0.105373754886	0
0	21928	0.105386209152	0.01
0	21934	0.105389279329	0.02
0	21950	0.105459034886	0.01
0	21955	0.105490080683	0.02
0	21971	0.105544314886	0.01
0	21976	0.105613984334	0.02
0	21992	0.105629594886	0.01
0	21997	0.105649600912	0.02
0	22003	0.105650392447	0.03
0	22009	0.105712051756	0.04
0	22025	0.105714874886	0.03
0	22030	0.105758681459	0.04
0	22036	0.10576116478	0.05
0	22052	0.105800154886	0.04
0	22057	0.105836781405	0.05
0	22073	0.105885434886	0.04
0	22078	0.105918440674	0.05
0	22094	0.105970714886	0.04
0	22109	0.106055994886	0.03
0	22124	0.106141274886	0.02
0	22129	0.106173688323	0.03
0	22135	0.10621849712	0.04
0	22151	0.106226554886	0.03
0	22156	0.106227872659	0.04
0	22162	0.10629773076	0.05
0	22178	0.106311834886	0.04
0	22183	0.106349808646	0.05
0	22189	0.106366488222	0.06
0	22195	0.106368949586	0.07
0	22211	0.106397114886	0.06
0	22216	0.106424376433	0.07
0	22222	0.106466324365	0.08
0	22238	0.106482394886	0.07
0	22253	0.106567674886	0.06
0	22268	0.106652954886	0.05
0	22273	0.106702953391	0.06
0	22289	0.106738234886	0.05
0	22294	0.106800300645	0.06
0	22300	0.106801155447	0.07
0	22316	0.106823514886	0.06
0	22321	0.106833876485	0.07
0	22337	0.106908794886	0.06
0	22352	0.106994074886	0.05
0	22367	0.107079354886	0.04
0	22382	0.107164634886	0.03
0	22387	0.107180815869	0.04
0	22393	0.107204356456	0.05
0	22409	0.107249914886	0.04
0	22414	0.10732176347	0.05
0	22426	0.107334059727	0.06
0	22436	0.107335194886	0.05
0	22441	0.107344530954	0.06
0	22457	0.107420474886	0.05
0	22462	0.107430602425	0.06
0	22468	0.107464819894	0.07
0	22484	0.107505754886	0.06
0	22489	0.10758365281	0.07
0	22505	0.107591034886	0.06
0	22510	0.107661104489	0.07
0	22526	0.107676314886	0.06
0	22541	0.107761594886	0.05
0	22546	0.107772565589	0.06
0	22562	0.107846874886	0.05
0	22567	0.107901354613	0.06
0	22583	0.107932154886	0.05
0	22598	0.108017434886	0.04
0	22613	0.108102714886	0.03
0	22628	0.108187994886	0.02
0	22633	0.108198675447	0.03
0	22639	0.108247919585	0.04
0	22645	0.108248190272	0.05
0	22661	0.108273274886	0.04
0	22666	0.108273948759	0.05
0	22682	0.108358554886	0.04
0	22687	0.108378133205	0.05
0	22693	0.108438804446	0.06
0	22709	0.108443834886	0.05
0	22724	0.108529114886	0.04
0	22729	0.108530531626	0.05
0	22745	0.108614394886	0.04
0	22760	0.108699674886	0.03
0	22775	0.108784954886	0.02
0	22790	0.108870234886	0.01
0	22795	0.108888381799	0.02
0	22811	0.108955514886	0.01
0	22816	0.10897723467	0.02
0	22832	0.109040794886	0.01
0	22847	0.109126074886	0
0	22852	0.109156701981	0.01
0	22868	0.109211354886	0
0	22896	0.109485766864	0.01
0	22897	0.109485766864	0
0	22917	0.109732031291	0.01
0	22918	0.109732031291	0
0	22923	0.109733732853	0.01
0	22931	0.109817311291	0
0	22936	0.109843779706	0.01
0	22952	0.109902591291	0
0	22957	0.109963011283	0.01
0	22973	0.109987871291	0
0	22978	0.110021112149	0.01
0	22994	0.110073151291	0
0	23014	0.110189140389	0.01
0	23015	0.110189140389	0
0	23035	0.110304687862	0.01
0	23036	0.110304687862	0
0	23049	0.11037598351	0.01
0	23057	0.110389967862	0
0	23077	0.110480566039	0.01
0	23078	0.110480566039	0
0	23083	0.110521207326	0.01
0	23089	0.110524160507	0.02
0	23105	0.110565846039	0.01
0	23120	0.110651126039	0
0	23125	0.110680626162	0.01
0	23141	0.110736406039	0
0	23169	0.110932615031	0.01
0	23170	0.110932615031	0
0	23175	0.110942845209	0.01
0	23183	0.111017895031	0
0	23188	0.111021033651	0.01
0	23194	0.111079379668	0.02
0	23210	0.111103175031	0.01
0	23225	0.111188455031	0
0	23253	0.111552019188	0.01
0	23254	0.111552019188	0
0	23259	0.111625406185	0.01
0	23267	0.111637299188	0
0	23272	0.111673711487	0.01
0	23288	0.111722579188	0
0	23293	0.111792114261	0.01
0	23309	0.111807859188	0
0	23329	0.111956449585	0.01
0	23330	0.111956449585	0
0	23335	0.111965978033	0.01
0	23349	0.112027783271	0.02
0	23357	0.112041729585	0.01
0	23362	0.112053629196	0.02
0	23378	0.112127009585	0.01
0	23393	0.112212289585	0
0	23398	0.112228974008	0.01
0	23404	0.112281788407	0.02
0	23420	0.112297569585	0.01
0	23425	0.112359249781	0.02
0	23441	0.112382849585	0.01
0	23446	0.112456878983	0.02
0	23462	0.112468129585	0.01
0	23477	0.112553409585	0
0	23497	0.112675150372	0.01
0	23498	0.112675150372	0
0	23526	0.112893152417	0.01
0	23527	0.112893152417	0
0	23547	0.113105267863	0.01
0	23548	0.113105267863	0
0	23560	0.113201717839	0.01
0	23561	0.113201717839	0
0	23566	0.113241512678	0.01
0	23572	0.113255837548	0.02
0	23588	0.113286997839	0.01
0	23593	0.113307660333	0.02
0	23609	0.113372277839	0.01
0	23624	0.113457557839	0
0	23652	0.113701806201	0.01
0	23653	0.113701806201	0
0	23658	0.113780474513	0.01
0	23666	0.113787086201	0
0	23694	0.113985879761	0.01
0	23695	0.113985879761	0
0	23707	0.114083084658	0.01
0	23708	0.114083084658	0
0	23713	0.114152945015	0.01
0	23729	0.114168364658	0
0	23734	0.11420064479	0.01
0	23750	0.114253644658	0
0	23778	0.114456196562	0.01
0	23779	0.114456196562	0
0	23784	0.114534313441	0.01
0	23792	0.114541476562	0
0	23797	0.114612266944	0.01
0	23809	0.114625154809	0.02
0	23819	0.114626756562	0.01
0	23834	0.114712036562	0
0	23862	0.114881948072	0.01
0	23863	0.114881948072	0
0	23875	0.114996109624	0.01
0	23876	0.114996109624	0
0	23904	0.115173244956	0.01
0	23905	0.115173244956	0
0	23910	0.115207089069	0.01
0	23918	0.115258524956	0
0	23946	0.115552190082	0.01
0	23947	0.115552190082	0
0	23952	0.115556582805	0.01
0	23960	0.115637470082	0
0	23988	0.115808884551	0.01
0	23989	0.115808884551	0
0	23994	0.115821225498	0.01
0	24000	0.115824895405	0.02
0	24006	0.1158361484	0.03
0	24012	0.115855357958	0.04
0	24023	0.115893409053	0.05
0	24026	0.115894164551	0.04
0	24031	0.11594269693	0.05
0	24037	0.115971004174	0.06
0	24053	0.115979444551	0.05
0	24068	0.116064724551	0.04
0	24083	0.116150004551	0.03
0	24098	0.116235284551	0.02
0	24103	0.116274957333	0.03
0	24119	0.116320564551	0.02
0	24124	0.116357689925	0.03
0	24130	0.11639336155	0.04
0	24146	0.116405844551	0.03
0	24161	0.116491124551	0.02
0	24176	0.116576404551	0.01
0	24181	0.116630185155	0.02
0	24187	0.116647676181	0.03
0	24203	0.116661684551	0.02
0	24208	0.116734451695	0.03
0	24224	0.116746964551	0.02
0	24239	0.116832244551	0.01
0	24254	0.116917524551	0
0	24259	0.116951874986	0.01
0	24275	0.117002804551	0
0	24280	0.117042989567	0.01
0	24296	0.117088084551	0
0	24301	0.117102119846	0.01
0	24307	0.11712930643	0.02
0	24323	0.117173364551	0.01
0	24338	0.117258644551	0
0	24358	0.117367767964	0.01
0	24359	0.117367767964	0
0	24379	0.1174547295	0.01
0	24380	0.1174547295	0
0	24385	0.11747219228	0.01
0	24391	0.117487959485	0.02
0	24407	0.1175400095	0.01
0	24412	0.117596169673	0.02
0	24428	0.1176252895	0.01
0	24433	0.117637061426	0.02
0	24439	0.117695090385	0.03
0	24455	0.1177105695	0.02
0	24460	0.117793314203	0.03
0	24476	0.1177958495	0.02
0	24481	0.117801271219	0.03
0	24487	0.11784610415	0.04
0	24503	0.1178811295	0.03
0	24514	0.117965329374	0.04
0	24524	0.1179664095	0.03
0	24539	0.1180516895	0.02
0	24554	0.1181369695	0.01
0	24559	0.118207234513	0.02
0	24575	0.1182222495	0.01
0	24580	0.118235656487	0.02
0	24596	0.1183075295	0.01
0	24611	0.1183928095	0
0	24616	0.118446434523	0.01
0	24622	0.118450476681	0.02
0	24638	0.1184780895	0.01
0	24643	0.118507420292	0.02
0	24649	0.118513601907	0.03
0	24665	0.1185633695	0.02
0	24670	0.118586502579	0.03
0	24676	0.118592804923	0.04
0	24692	0.1186486495	0.03
0	24697	0.118657177404	0.04
0	24713	0.1187339295	0.03
0	24728	0.1188192095	0.02
0	24733	0.118895484231	0.03
0	24749	0.1189044895	0.02
0	24754	0.118915862769	0.03
0	24770	0.1189897695	0.02
0	24775	0.119050525498	0.03
0	24791	0.1190750495	0.02
0	24796	0.119107576097	0.03
0	24812	0.1191603295	0.02
0	24827	0.1192456095	0.01
0	24842	0.1193308895	0
0	24847	0.1193359155	0.01
0	24853	0.119356685829	0.02
0	24869	0.1194161695	0.01
0	24874	0.119468337686	0.02
0	24890	0.1195014495	0.01
0	24905	0.1195867295	0
0	24910	0.119593937246	0.01
0	24916	0.119669214211	0.02
0	24932	0.1196720095	0.01
0	24937	0.11974323943	0.02
0	24953	0.1197572895	0.01
0	24958	0.119779544145	0.02
0	24964	0.119818193563	0.03
0	24980	0.1198425695	0.02
0	24995	0.1199278495	0.01
0	25010	0.1200131295	0
0	25038	0.120437784575	0.01
0	25039	0.120437784575	0
0	25044	0.120438095011	0.01
0	25050	0.120483066348	0.02
0	25058	0.120523064575	0.01
0	25063	0.120574023418	0.02
0	25079	0.120608344575	0.01
0	25084	0.120637633763	0.02
0	25100	0.120693624575	0.01
0	25105	0.120742352989	0.02
0	25121	0.120778904575	0.01
0	25126	0.120789873933	0.02
0	25132	0.120790394246	0.03
0	25148	0.120864184575	0.02
0	25163	0.120949464575	0.01
0	25178	0.121034744575	0
0	25198	0.121179258718	0.01
0	25199	0.121179258718	0
0	25227	0.1215306566	0.01
0	25228	0.1215306566	0
0	25233	0.12154985239	0.01
0	25241	0.1216159366	0
0	25246	0.121658876949	0.01
0	25252	0.121698624857	0.02
0	25268	0.1217012166	0.01
0	25273	0.121733317745	0.02
0	25289	0.1217864966	0.01
0	25294	0.121847370192	0.02
0	25300	0.121869730098	0.03
0	25316	0.1218717766	0.02
0	25321	0.121876259458	0.03
0	25337	0.1219570566	0.02
0	25352	0.1220423366	0.01
0	25367	0.1221276166	0
0	25372	0.122136226783	0.01
0	25388	0.1222128966	0
0	25393	0.122229684825	0.01
0	25399	0.122266682743	0.02
0	25415	0.1222981766	0.01
0	25420	0.122331623816	0.02
0	25439	0.122383244161	0.03
0	25442	0.1223834566	0.02
0	25447	0.122416651669	0.03
0	25463	0.1224687366	0.02
0	25468	0.12251690791	0.03
0	25474	0.122544143033	0.04
0	25490	0.1225540166	0.03
0	25505	0.1226392966	0.02
0	25520	0.1227245766	0.01
0	25525	0.122765465756	0.02
0	25541	0.1228098566	0.01
0	25546	0.12283772598	0.02
0	25565	0.122894396176	0.03
0	25568	0.1228951366	0.02
0	25573	0.122940271306	0.03
0	25589	0.1229804166	0.02
0	25604	0.1230656966	0.01
0	25619	0.1231509766	0
0	25624	0.123203684446	0.01
0	25640	0.1232362566	0
0	25645	0.123264660663	0.01
0	25661	0.1233215366	0
0	25666	0.123354329247	0.01
0	25672	0.123395499305	0.02
0	25688	0.1234068166	0.01
0	25693	0.123452024833	0.02
0	25709	0.1234920966	0.01
0	25724	0.1235773766	0
0	25752	0.123804339967	0.01
0	25753	0.123804339967	0
0	25765	0.123894180204	0.01
0	25766	0.123894180204	0
0	25771	0.123908502531	0.01
0	25777	0.123952276477	0.02
0	25783	0.123962458041	0.03
0	25799	0.123979460204	0.02
0	25814	0.124064740204	0.01
0	25819	0.12406946629	0.02
0	25825	0.124111533057	0.03
0	25841	0.124150020204	0.02
0	25846	0.124217177156	0.03
0	25862	0.124235300204	0.02
0	25867	0.124306587745	0.03
0	25883	0.124320580204	0.02
0	25898	0.124405860204	0.01
0	25903	0.124479026934	0.02
0	25919	0.124491140204	0.01
0	25934	0.124576420204	0
0	25939	0.12458666598	0.01
0	25945	0.124638210735	0.02
0	25961	0.124661700204	0.01
0	25966	0.124688837132	0.02
0	25972	0.124692666012	0.03
0	25988	0.124746980204	0.02
0	26003	0.124832260204	0.01
0	26018	0.124917540204	0
0	26046	0.125416012857	0.01
0	26047	0.125416012857	0
0	26067	0.125833557217	0.01
0	26068	0.125833557217	0
0	26073	0.125876927164	0.01
0	26081	0.125918837217	0
0	26086	0.125936373766	0.01
0	26102	0.126004117217	0
0	26107	0.126064173979	0.01
0	26123	0.126089397217	0
0	26151	0.126341649441	0.01
0	26152	0.126341649441	0
0	26164	0.126443145337	0.01
0	26165	0.126443145337	0
0	26185	0.126554632022	0.01
0	26186	0.126554632022	0
0	26206	0.126722325495	0.01
0	26207	0.126722325495	0
0	26220	0.126753345107	0.01
0	26228	0.126807605495	0
0	26256	0.127127259955	0.01
0	26257	0.127127259955	0
0	26262	0.12721028602	0.01
0	26270	0.127212539955	0
0	26298	0.1274308261	0.01
0	26299	0.1274308261	0
0	26319	0.127745325855	0.01
0	26320	0.127745325855	0
0	26332	0.127889956612	0.01
0	26333	0.127889956612	0
0	26338	0.127902002439	0.01
0	26354	0.127975236612	0
0	26359	0.128021817578	0.01
0	26365	0.128053594512	0.02
0	26381	0.128060516612	0.01
0	26386	0.128094466277	0.02
0	26392	0.128103028356	0.03
0	26398	0.128119008334	0.04
0	26414	0.128145796612	0.03
0	26429	0.128231076612	0.02
0	26434	0.128263940521	0.03
0	26440	0.128270408882	0.04
0	26446	0.12827260162	0.05
0	26452	0.128300295843	0.06
0	26464	0.128315059031	0.07
0	26474	0.128316356612	0.06
0	26479	0.128371671986	0.07
0	26495	0.128401636612	0.06
0	26500	0.128401867486	0.07
0	26506	0.12847568116	0.08
0	26522	0.128486916612	0.07
0	26537	0.128572196612	0.06
0	26552	0.128657476612	0.05
0	26557	0.128680539476	0.06
0	26573	0.128742756612	0.05
0	26588	0.128828036612	0.04
0	26593	0.128828856817	0.05
0	26599	0.128848629994	0.06
0	26615	0.128913316612	0.05
0	26630	0.128998596612	0.04
0	26645	0.129083876612	0.03
0	26656	0.129167418411	0.04
0	26666	0.129169156612	0.03
0	26671	0.12922420718	0.04
0	26677	0.129236686489	0.05
0	26693	0.129254436612	0.04
0	26698	0.129276008218	0.05
0	26704	0.129287325551	0.06
0	26720	0.129339716612	0.05
0	26725	0.129374889431	0.06
0	26741	0.129424996612	0.05
0	26746	0.129463974811	0.06
0	26762	0.129510276612	0.05
0	26777	0.129595556612	0.04
0	26792	0.129680836612	0.03
0	26797	0.129739596119	0.04
0	26813	0.129766116612	0.03
0	26828	0.129851396612	0.02
0	26833	0.129876401521	0.03
0	26849	0.129936676612	0.02
0	26864	0.130021956612	0.01
0	26879	0.130107236612	0
0	26884	0.130159053918	0.01
0	26900	0.130192516612	0
0	26920	0.130347540379	0.01
0	26921	0.130347540379	0
0	26926	0.130352934075	0.01
0	26942	0.130432820379	0
0	26970	0.130627559262	0.01
0	26971	0.130627559262	0
0	26983	0.130718245573	0.01
0	26984	0.130718245573	0
0	27012	0.131128239002	0.01
0	27013	0.131128239002	0
0	27033	0.131350617284	0.01
0	27034	0.131350617284	0
0	27039	0.1314016668	0.01
0	27047	0.131435897284	0
0	27067	0.131553503715	0.01
0	27068	0.131553503715	0
0	27073	0.131601361372	0.01
0	27087	0.131625127959	0.02
0	27095	0.131638783715	0.01
0	27100	0.13164112238	0.02
0	27116	0.131724063715	0.01
0	27121	0.131785936992	0.02
0	27137	0.131809343715	0.01
0	27152	0.131894623715	0
0	27157	0.131901434445	0.01
0	27163	0.131922390894	0.02
0	27179	0.131979903715	0.01
0	27184	0.132029324	0.02
0	27200	0.132065183715	0.01
0	27215	0.132150463715	0
0	27235	0.132258349722	0.01
0	27236	0.132258349722	0
0	27264	0.132456445252	0.01
0	27265	0.132456445252	0
0	27270	0.132457342391	0.01
0	27276	0.132467574239	0.02
0	27282	0.132477030913	0.03
0	27290	0.132541725252	0.02
0	27295	0.132545901997	0.03
0	27311	0.132627005252	0.02
0	27316	0.132642445577	0.03
0	27332	0.132712285252	0.02
0	27337	0.132729453568	0.03
0	27343	0.132777651489	0.04
0	27359	0.132797565252	0.03
0	27364	0.132805300257	0.04
0	27370	0.132815455134	0.05
0	27376	0.132833970739	0.06
0	27392	0.132882845252	0.05
0	27407	0.132968125252	0.04
0	27422	0.133053405252	0.03
0	27437	0.133138685252	0.02
0	27452	0.133223965252	0.01
0	27457	0.133253497601	0.02
0	27473	0.133309245252	0.01
0	27488	0.133394525252	0
0	27493	0.13344980993	0.01
0	27509	0.133479805252	0
0	27537	0.133676706839	0.01
0	27538	0.133676706839	0
0	27543	0.133682738641	0.01
0	27549	0.133714362352	0.02
0	27557	0.133761986839	0.01
0	27562	0.133777967399	0.02
0	27568	0.133842058941	0.03
0	27584	0.133847266839	0.02
0	27589	0.133854369986	0.03
0	27595	0.133919715312	0.04
0	27611	0.133932546839	0.03
0	27616	0.133980790729	0.04
0	27632	0.134017826839	0.03
0	27637	0.134051797764	0.04
0	27653	0.134103106839	0.03
0	27668	0.134188386839	0.02
0	27683	0.134273666839	0.01
0	27698	0.134358946839	0
0	27709	0.134442811841	0.01
0	27719	0.134444226839	0
0	27747	0.134784725491	0.01
0	27748	0.134784725491	0
0	27753	0.134839839286	0.01
0	27759	0.134850370728	0.02
0	27767	0.134870005491	0.01
0	27782	0.134955285491	0
0	27802	0.135044949186	0.01
0	27803	0.135044949186	0
0	27808	0.135048994982	0.01
0	27814	0.135061473734	0.02
0	27828	0.135127581714	0.03
0	27836	0.135130229186	0.02
0	27841	0.135159224453	0.03
0	27857	0.135215509186	0.02
0	27862	0.13522052118	0.03
0	27868	0.135272237873	0.04
0	27880	0.135299060182	0.05
0	27890	0.135300789186	0.04
0	27895	0.13535011144	0.05
0	27901	0.13535617887	0.06
0	27917	0.135386069186	0.05
0	27922	0.135467465251	0.06
0	27938	0.135471349186	0.05
0	27943	0.135480686411	0.06
0	27949	0.13552295539	0.07
0	27965	0.135556629186	0.06
0	27980	0.135641909186	0.05
0	27985	0.135717275446	0.06
0	28001	0.135727189186	0.05
0	28016	0.135812469186	0.04
0	28021	0.135842370312	0.05
0	28027	0.135893397452	0.06
0	28043	0.135897749186	0.05
0	28058	0.135983029186	0.04
0	28063	0.135995336971	0.05
0	28069	0.136043366152	0.06
0	28085	0.136068309186	0.05
0	28090	0.136094309003	0.06
0	28096	0.136096530868	0.07
0	28115	0.136153052031	0.08
0	28118	0.136153589186	0.07
0	28123	0.136200012834	0.08
0	28139	0.136238869186	0.07
0	28144	0.136295341427	0.08
0	28160	0.136324149186	0.07
0	28165	0.136403696246	0.08
0	28181	0.136409429186	0.07
0	28186	0.136410957852	0.08
0	28202	0.136494709186	0.07
0	28207	0.136509136343	0.08
0	28223	0.136579989186	0.07
0	28238	0.136665269186	0.06
0	28243	0.13668196228	0.07
0	28259	0.136750549186	0.06
0	28274	0.136835829186	0.05
0	28289	0.136921109186	0.04
0	28294	0.136927292864	0.05
0	28310	0.137006389186	0.04
0	28315	0.137033257358	0.05
0	28331	0.137091669186	0.04
0	28336	0.137144668832	0.05
0	28352	0.137176949186	0.04
0	28367	0.137262229186	0.03
0	28372	0.137274256614	0.04
0	28378	0.137313425068	0.05
0	28394	0.137347509186	0.04
0	28399	0.137390411262	0.05
0	28405	0.137428423165	0.06
0	28421	0.137432789186	0.05
0	28426	0.137440130169	0.06
0	28442	0.137518069186	0.05
0	28457	0.137603349186	0.04
0	28462	0.137619295603	0.05
0	28468	0.137671220975	0.06
0	28484	0.137688629186	0.05
0	28499	0.137773909186	0.04
0	28504	0.137820744087	0.05
0	28520	0.137859189186	0.04
0	28525	0.137872726281	0.05
0	28531	0.13790573695	0.06
0	28550	0.137944456697	0.07
0	28553	0.137944469186	0.06
0	28568	0.138029749186	0.05
0	28573	0.138069607593	0.06
0	28579	0.138072648392	0.07
0	28595	0.138115029186	0.06
0	28600	0.138155105564	0.07
0	28616	0.138200309186	0.06
0	28631	0.138285589186	0.05
0	28636	0.138288762406	0.06
0	28642	0.138339788321	0.07
0	28648	0.138351417488	0.08
0	28664	0.138370869186	0.07
0	28669	0.13842710292	0.08
0	28685	0.138456149186	0.07
0	28690	0.138520321594	0.08
0	28696	0.13852923019	0.09
0	28712	0.138541429186	0.08
0	28727	0.138626709186	0.07
0	28732	0.138650705761	0.08
0	28748	0.138711989186	0.07
0	28753	0.138760270748	0.08
0	28769	0.138797269186	0.07
0	28774	0.138860998017	0.08
0	28780	0.138864006297	0.09
0	28796	0.138882549186	0.08
0	28811	0.138967829186	0.07
0	28826	0.139053109186	0.06
0	28841	0.139138389186	0.05
0	28846	0.139183772173	0.06
0	28862	0.139223669186	0.05
0	28877	0.139308949186	0.04
0	28892	0.139394229186	0.03
0	28897	0.13940385386	0.04
0	28903	0.139414757046	0.05
0	28919	0.139479509186	0.04
0	28924	0.13952936485	0.05
0	28940	0.139564789186	0.04
0	28955	0.139650069186	0.03
0	28960	0.139731231226	0.04
0	28976	0.139735349186	0.03
0	28991	0.139820629186	0.02
0	29006	0.139905909186	0.01
0	29011	0.139953160778	0.02
0	29017	0.139956123253	0.03
0	29023	0.139956244083	0.04
0	29039	0.139991189186	0.03
0	29044	0.140032797991	0.04
0	29060	0.140076469186	0.03
0	29075	0.140161749186	0.02
0	29090	0.140247029186	0.01
0	29095	0.140309607997	0.02
0	29111	0.140332309186	0.01
0	29116	0.140361400342	0.02
0	29132	0.140417589186	0.01
0	29147	0.140502869186	0
0	29175	0.140679143404	0.01
0	29176	0.140679143404	0
0	29181	0.140753415779	0.01
0	29189	0.140764423404	0
0	29209	0.140912536005	0.01
0	29210	0.140912536005	0
0	29223	0.140957964763	0.01
0	29231	0.140997816005	0
0	29259	0.141441723508	0.01
0	29260	0.141441723508	0
0	29265	0.141462865625	0.01
0	29271	0.141506751043	0.02
0	29277	0.141508681854	0.03
0	29285	0.141527003508	0.02
0	29300	0.141612283508	0.01
0	29318	0.141697293365	0.02
0	29321	0.141697563508	0.01
0	29326	0.141770305567	0.02
0	29342	0.141782843508	0.01
0	29357	0.141868123508	0
0	29362	0.141917566853	0.01
0	29378	0.141953403508	0
0	29398	0.142102575775	0.01
0	29399	0.142102575775	0
0	29419	0.14223006092	0.01
0	29420	0.14223006092	0
0	29433	0.142276776243	0.01
0	29441	0.14231534092	0
0	29446	0.142377128682	0.01
0	29462	0.14240062092	0
0	29467	0.14240234265	0.01
0	29473	0.142439069467	0.02
0	29479	0.142447465471	0.03
0	29495	0.14248590092	0.02
0	29500	0.142524528577	0.03
0	29506	0.142533445685	0.04
0	29512	0.142565545451	0.05
0	29528	0.14257118092	0.04
0	29533	0.142590570779	0.05
0	29539	0.142591443569	0.06
0	29545	0.142601981183	0.07
0	29551	0.142604507295	0.08
0	29557	0.142635301175	0.09
0	29563	0.142650883094	0.1
0	29579	0.14265646092	0.09
0	29584	0.142657726982	0.1
0	29590	0.142729832222	0.11
0	29596	0.14273661781	0.12
0	29612	0.14274174092	0.11
0	29617	0.142761805288	0.12
0	29633	0.14282702092	0.11
0	29648	0.14291230092	0.1
0	29653	0.142955791464	0.11
0	29669	0.14299758092	0.1
0	29674	0.143001914042	0.11
0	29680	0.143019602113	0.12
0	29686	0.143025270501	0.13
0	29702	0.14308286092	0.12
0	29707	0.1431072964	0.13
0	29723	0.14316814092	0.12
0	29738	0.14325342092	0.11
0	29753	0.14333870092	0.1
0	29758	0.143349430065	0.11
0	29774	0.14342398092	0.1
0	29779	0.143497911472	0.11
0	29795	0.14350926092	0.1
[...]
5	299665	1.422764422413	0
5	299692	1.422849702413	0
5	299707	1.422934982413	0
5	299722	1.423020262413	0
5	299743	1.423105542413	0
5	299764	1.423190822413	0
5	299785	1.423276102413	0
5	299806	1.423361382413	0
5	299845	1.423446662413	0
5	299860	1.423531942413	0
5	299887	1.423617222413	0
5	299902	1.423702502413	0
5	299917	1.423787782413	0
5	299944	1.423873062413	0
5	299965	1.423958342413	0
5	299980	1.424043622413	0
5	299995	1.424128902413	0
5	300016	1.424214182413	0
5	300031	1.424299462413	0
5	300052	1.424384742413	0
5	300073	1.424470022413	0
5	300094	1.424555302413	0
5	300115	1.424640582413	0
5	300130	1.424725862413	0
5	300145	1.424811142413	0
5	300160	1.424896422413	0
5	300181	1.424981702413	0
5	300208	1.425066982413	0
5	300229	1.425152262413	0
5	300250	1.425237542413	0
5	300277	1.425322822413	0
5	300292	1.425408102413	0
5	300307	1.425493382413	0
5	300346	1.425578662413	0
5	300361	1.425663942413	0
5	300388	1.425749222413	0
5	300403	1.425834502413	0
5	300424	1.425919782413	0
5	300451	1.426005062413	0
5	300466	1.426090342413	0
5	300487	1.426175622413	0
5	300502	1.426260902413	0
5	300535	1.426346182413	0
5	300550	1.426431462413	0
5	300565	1.426516742413	0
5	300586	1.426602022413	0
5	300607	1.426687302413	0
5	300622	1.426772582413	0
5	300637	1.426857862413	0
5	300658	1.426943142413	0
5	300679	1.427036422827	0
5	300694	1.427172388263	0
5	300727	1.427379232253	0
5	300742	1.427464512253	0
5	300763	1.427549792253	0
5	300784	1.427717161139	0
5	300799	1.427802441139	0
5	300826	1.427991167319	0
5	300853	1.42815412829	0
5	300880	1.42823940829	0
5	300895	1.42832468829	0
5	300910	1.42840996829	0
5	300925	1.42849524829	0
5	300958	1.428712051001	0
5	300973	1.428797331001	0
5	300988	1.428882611001	0
5	301027	1.42939611728	0
5	301054	1.42948139728	0
5	301087	1.42956667728	0
5	301114	1.42965195728	0
5	301135	1.42973723728	0
5	301150	1.42982251728	0
5	301165	1.42990779728	0
5	301192	1.42999307728	0
5	301207	1.43007835728	0
5	301228	1.43016363728	0
5	301243	1.43024891728	0
5	301258	1.43033419728	0
5	301279	1.43041947728	0
5	301300	1.43050475728	0
5	301315	1.43059003728	0
5	301342	1.43067531728	0
5	301357	1.43076059728	0
5	301372	1.43084587728	0
5	301399	1.43093115728	0
5	301420	1.43103878473	0
5	301441	1.43112406473	0
5	301468	1.43120934473	0
5	301483	1.43129462473	0
5	301498	1.43137990473	0
5	301531	1.43146518473	0
5	301552	1.431555565382	0
5	301573	1.431640845382	0
5	301588	1.431726125382	0
5	301615	1.431811405382	0
5	301636	1.431896685382	0
5	301657	1.431981965382	0
5	301678	1.432067245382	0
5	301699	1.432152525382	0
5	301714	1.432237805382	0
5	301729	1.432323085382	0
5	301750	1.432408365382	0
5	301771	1.432532210688	0
5	301786	1.432617490688	0
5	301813	1.432801583502	0
5	301834	1.432886863502	0
5	301849	1.432977624793	0
5	301870	1.433250387529	0
5	301921	1.433574875999	0
5	301936	1.433660155999	0
5	301951	1.433745435999	0
5	301972	1.433830715999	0
5	301999	1.433915995999	0
5	302020	1.434001275999	0
5	302035	1.434086555999	0
5	302050	1.434171835999	0
5	302065	1.434257115999	0
5	302092	1.434342395999	0
5	302125	1.434454714357	0
5	302146	1.434539994357	0
5	302161	1.434625274357	0
5	302176	1.434710554357	0
5	302197	1.434795834357	0
5	302212	1.434881114357	0
5	302227	1.434966394357	0
5	302254	1.43517303987	0
5	302269	1.435340520298	0
5	302308	1.435596959942	0
5	302347	1.435682239942	0
5	302362	1.435767519942	0
5	302377	1.435852799942	0
5	302392	1.435938079942	0
5	302407	1.436023359942	0
5	302422	1.436108639942	0
5	302443	1.436193919942	0
5	302464	1.43635515852	0
5	302491	1.436449931972	0
5	302506	1.436581104647	0
5	302521	1.436666384647	0
5	302548	1.436881183469	0
5	302563	1.436966463469	0
5	302590	1.437138955656	0
5	302611	1.437234280375	0
5	302626	1.437337387173	0
5	302647	1.437617243759	0
5	302668	1.437924644231	0
5	302701	1.438178820126	0
5	302722	1.438264100126	0
5	302749	1.438349380126	0
5	302770	1.438434660126	0
5	302785	1.438519940126	0
5	302806	1.438605220126	0
5	302821	1.438690500126	0
5	302836	1.438775780126	0
5	302857	1.438987767223	0
5	302878	1.439248377661	0
5	302911	1.439718770899	0
5	302932	1.439853557364	0
5	302947	1.439938837364	0
5	302962	1.440024117364	0
5	302989	1.440242030515	0
5	303010	1.440327310515	0
5	303043	1.440480404524	0
5	303064	1.440565684524	0
5	303085	1.440650964524	0
5	303100	1.440736244524	0
5	303121	1.440821524524	0
5	303142	1.440906804524	0
5	303157	1.440992084524	0
5	303172	1.441077364524	0
5	303205	1.441289984479	0
5	303232	1.441395658156	0
5	303247	1.441480938156	0
5	303262	1.441566218156	0
5	303283	1.441651498156	0
5	303298	1.441777584272	0
5	303331	1.441959177182	0
5	303352	1.442044457182	0
5	303373	1.442129737182	0
5	303388	1.442215017182	0
5	303415	1.442300297182	0
5	303442	1.442409288791	0
5	303457	1.442494568791	0
5	303478	1.442579848791	0
5	303499	1.442665128791	0
5	303532	1.442750408791	0
5	303553	1.442835688791	0
5	303574	1.442920968791	0
5	303589	1.443006248791	0
5	303610	1.443091528791	0
5	303631	1.443176808791	0
5	303646	1.443262088791	0
5	303679	1.443347368791	0
5	303700	1.443432648791	0
5	303727	1.443517928791	0
5	303748	1.443603208791	0
5	303769	1.443688488791	0
5	303784	1.443773768791	0
5	303811	1.443859048791	0
5	303844	1.443944328791	0
5	303865	1.444029608791	0
5	303880	1.444114888791	0
5	303895	1.444200168791	0
5	303916	1.444285448791	0
5	303937	1.444370728791	0
5	303970	1.444456008791	0
5	303997	1.444541288791	0
5	304012	1.444626568791	0
5	304039	1.444711848791	0
5	304054	1.444797128791	0
5	304075	1.444882408791	0
5	304096	1.444967688791	0
5	304123	1.445052968791	0
5	304144	1.445138248791	0
5	304171	1.445223528791	0
5	304186	1.445308808791	0
5	304201	1.445394088791	0
5	304222	1.445479368791	0
5	304237	1.445564648791	0
5	304252	1.445649928791	0
5	304273	1.445735208791	0
5	304294	1.445820488791	0
5	304309	1.445905768791	0
5	304324	1.445991048791	0
5	304351	1.446076328791	0
5	304366	1.446161608791	0
5	304381	1.446246888791	0
5	304396	1.446332168791	0
5	304417	1.446417448791	0
5	304432	1.446550314558	0
5	304465	1.44674724283	0
5	304486	1.44683252283	0
5	304507	1.44691780283	0
5	304522	1.44700308283	0
5	304537	1.44708836283	0
5	304564	1.447386096066	0
5	304597	1.447471376066	0
5	304624	1.447564702386	0
5	304651	1.447649982386	0
5	304672	1.447735262386	0
5	304687	1.447820542386	0
5	304702	1.447905822386	0
5	304717	1.447991102386	0
5	304738	1.448076382386	0
5	304765	1.448161662386	0
5	304780	1.448246942386	0
5	304807	1.448332222386	0
5	304828	1.448417502386	0
5	304849	1.448502782386	0
5	304864	1.448588062386	0
5	304885	1.448673342386	0
5	304912	1.448758622386	0
5	304933	1.448843902386	0
5	304948	1.448929182386	0
5	304963	1.449014462386	0
5	304984	1.449099742386	0
5	305005	1.449254106629	0
5	305026	1.44939525588	0
5	305041	1.449481574652	0
5	305080	1.449717421453	0
5	305095	1.449802701453	0
5	305110	1.449887981453	0
5	305125	1.449973261453	0
5	305146	1.45018269166	0
5	305173	1.450588309321	0
5	305206	1.450687578033	0
5	305227	1.450782597466	0
5	305242	1.450867877466	0
5	305257	1.450953157466	0
5	305278	1.451038437466	0
5	305305	1.451183716296	0
5	305326	1.451268996296	0
5	305347	1.451354276296	0
5	305374	1.451439556296	0
5	305389	1.451524836296	0
5	305404	1.451610116296	0
5	305425	1.451695396296	0
5	305446	1.451805811236	0
5	305479	1.451925266203	0
5	305518	1.452010546203	0
5	305533	1.452095826203	0
5	305548	1.452181106203	0
5	305563	1.452266386203	0
5	305578	1.452351666203	0
5	305593	1.452436946203	0
5	305614	1.452522226203	0
5	305629	1.452609970901	0
5	305668	1.452823235845	0
5	305695	1.452908515845	0
5	305710	1.452993795845	0
5	305737	1.453079075845	0
5	305758	1.453164355845	0
5	305773	1.453249635845	0
5	305788	1.453334915845	0
5	305803	1.453420195845	0
5	305824	1.453505475845	0
5	305839	1.45360018135	0
5	305860	1.453804470237	0
5	305881	1.454045689459	0
5	305914	1.454254970288	0
5	305935	1.454340250288	0
5	305962	1.454425530288	0
5	305977	1.454510810288	0
5	305992	1.454596090288	0
5	306013	1.454681370288	0
5	306028	1.454787826784	0
5	306067	1.454970693739	0
5	306088	1.455055973739	0
5	306109	1.455141253739	0
5	306130	1.455226533739	0
5	306151	1.455311813739	0
5	306166	1.455397093739	0
5	306193	1.455482373739	0
5	306214	1.455567653739	0
5	306247	1.455652933739	0
5	306274	1.455738213739	0
5	306295	1.455823493739	0
5	306316	1.455908773739	0
5	306331	1.455994053739	0
5	306346	1.456079333739	0
5	306361	1.456164613739	0
5	306376	1.456249893739	0
5	306391	1.456335173739	0
5	306412	1.456420453739	0
5	306439	1.456544167575	0
5	306466	1.456629447575	0
5	306481	1.456714727575	0
5	306496	1.456800007575	0
5	306517	1.456885287575	0
5	306532	1.457002804027	0
5	306577	1.4572819941	0
5	306604	1.4573672741	0
5	306631	1.4574525541	0
5	306646	1.4575378341	0
5	306667	1.4576231141	0
5	306694	1.4577083941	0
5	306715	1.4577936741	0
5	306730	1.4578789541	0
5	306745	1.4579642341	0
5	306766	1.4580495141	0
5	306781	1.4581347941	0
5	306796	1.4582200741	0
5	306817	1.4583053541	0
5	306838	1.4583906341	0
5	306859	1.4584759141	0
5	306880	1.4585611941	0
5	306901	1.4586464741	0
5	306922	1.4587317541	0
5	306937	1.4588170341	0
5	306952	1.4589023141	0
5	306979	1.459278991148	0
5	307012	1.459364271148	0
5	307033	1.459464419035	0
5	307054	1.459549699035	0
5	307069	1.459634979035	0
5	307090	1.459720259035	0
5	307105	1.459805539035	0
5	307126	1.459890819035	0
5	307159	1.46004711405	0
5	307174	1.46013239405	0
5	307189	1.46021767405	0
5	307216	1.46030295405	0
5	307243	1.460424417092	0
5	307264	1.460509697092	0
5	307279	1.460594977092	0
5	307294	1.460680257092	0
5	307315	1.460765537092	0
5	307342	1.460892004711	0
5	307357	1.460977284711	0
5	307372	1.461062564711	0
5	307393	1.461354635367	0
5	307432	1.461578248316	0
5	307447	1.461663528316	0
5	307468	1.461748808316	0
5	307489	1.461834088316	0
5	307504	1.461919368316	0
5	307525	1.462004648316	0
5	307552	1.462140314595	0
5	307579	1.462243426799	0
5	307594	1.462328706799	0
5	307615	1.462413986799	0
5	307630	1.462499266799	0
5	307645	1.462584546799	0
5	307678	1.462826127956	0
5	307699	1.462916170565	0
5	307726	1.463001450565	0
5	307753	1.463086730565	0
5	307774	1.463172010565	0
5	307795	1.463257290565	0
5	307810	1.463342570565	0
5	307831	1.463427850565	0
5	307846	1.463513130565	0
5	307867	1.463598410565	0
5	307882	1.463683690565	0
5	307903	1.463768970565	0
5	307930	1.463936780572	0
5	307945	1.464022060572	0
5	307966	1.464107340572	0
5	307993	1.464245481009	0
5	308014	1.464392736391	0
5	308035	1.464478016391	0
5	308056	1.464563296391	0
5	308077	1.464648576391	0
5	308098	1.464733856391	0
5	308119	1.464819136391	0
5	308140	1.464904416391	0
5	308155	1.464989696391	0
5	308170	1.465074976391	0
5	308203	1.465254273403	0
5	308224	1.465339553403	0
5	308239	1.465424833403	0
5	308266	1.465510113403	0
5	308287	1.465625709724	0
5	308314	1.465710989724	0
5	308329	1.465796269724	0
5	308356	1.465881549724	0
5	308371	1.465966829724	0
5	308392	1.466052109724	0
5	308419	1.466137389724	0
5	308446	1.466222669724	0
5	308461	1.466307949724	0
5	308482	1.466393229724	0
5	308503	1.466478509724	0
5	308518	1.466563789724	0
5	308539	1.466649069724	0
5	308560	1.466734349724	0
5	308575	1.466819629724	0
5	308596	1.466904909724	0
5	308617	1.467000741872	0
5	308632	1.467086021872	0
5	308659	1.467344182829	0
5	308686	1.467429462829	0
5	308701	1.467532346943	0
5	308716	1.467617626943	0
5	308743	1.467917179326	0
5	308758	1.468077576813	0
5	308797	1.468376873308	0
5	308824	1.468462153308	0
5	308845	1.468547433308	0
5	308860	1.468632713308	0
5	308881	1.468717993308	0
5	308896	1.468803273308	0
5	308917	1.468888553308	0
5	308944	1.468973833308	0
5	308965	1.469059113308	0
5	308980	1.469144393308	0
5	309007	1.469229673308	0
5	309028	1.469314953308	0
5	309049	1.469400233308	0
5	309082	1.469485513308	0
5	309109	1.469570793308	0
5	309124	1.469656073308	0
5	309157	1.469741353308	0
5	309172	1.469826633308	0
5	309187	1.469911913308	0
5	309202	1.469997193308	0
5	309235	1.470082473308	0
5	309250	1.470167753308	0
5	309271	1.470253033308	0
5	309286	1.470338313308	0
5	309301	1.470423593308	0
5	309316	1.470508873308	0
5	309337	1.470594153308	0
5	309364	1.470679433308	0
5	309385	1.470764713308	0
5	309406	1.470849993308	0
5	309421	1.470935273308	0
5	309436	1.471020553308	0
5	309457	1.471105833308	0
5	309472	1.47121678611	0
5	309499	1.471404439357	0
5	309520	1.471489719357	0
5	309553	1.471607627115	0
5	309568	1.471692907115	0
5	309595	1.471778187115	0
5	309616	1.471863467115	0
5	309631	1.471948747115	0
5	309646	1.472034027115	0
5	309661	1.472119307115	0
5	309700	1.472540162364	0
5	309715	1.472625442364	0
5	309730	1.472710722364	0
5	309751	1.472796002364	0
5	309778	1.472894797806	0
5	309793	1.47298450245	0
5	309814	1.47306978245	0
5	309835	1.473208072652	0
5	309850	1.47336649555	0
5	309877	1.473583366132	0
5	309892	1.473668646132	0
5	309931	1.473966433738	0
5	309964	1.474051713738	0
5	309979	1.474136993738	0
5	310000	1.474222273738	0
5	310027	1.474307553738	0
5	310042	1.474392833738	0
5	310057	1.474478113738	0
5	310084	1.474563393738	0
5	310105	1.474648673738	0
5	310126	1.474733953738	0
5	310153	1.474819233738	0
5	310168	1.474904513738	0
5	310195	1.474989793738	0
5	310210	1.475075073738	0
5	310225	1.475160353738	0
5	310240	1.475245633738	0
5	310255	1.475330913738	0
5	310270	1.475416193738	0
5	310291	1.475717782525	0
5	310324	1.475990535437	0
5	310339	1.476075815437	0
5	310366	1.476161095437	0
5	310393	1.476252280031	0
5	310408	1.476337560031	0
5	310441	1.476422840031	0
5	310456	1.476508120031	0
5	310489	1.476593400031	0
5	310504	1.476678680031	0
5	310525	1.476763960031	0
5	310546	1.476849240031	0
5	310561	1.476934520031	0
5	310582	1.477019800031	0
5	310603	1.477105080031	0
5	310618	1.477190360031	0
5	310645	1.477275640031	0
5	310666	1.477360920031	0
5	310699	1.477446200031	0
5	310714	1.477531480031	0
5	310729	1.477616760031	0
5	310762	1.477702040031	0
5	310789	1.477787320031	0
5	310804	1.477872600031	0
5	310819	1.477957880031	0
5	310840	1.478043160031	0
5	310873	1.478128440031	0
5	310888	1.478213720031	0
5	310909	1.478299000031	0
5	310924	1.478384280031	0
5	310951	1.478469560031	0
5	310972	1.478554840031	0
5	310987	1.478640120031	0
5	311002	1.478725400031	0
5	311017	1.478810680031	0
5	311038	1.478895960031	0
5	311053	1.478981240031	0
5	311074	1.479066520031	0
5	311089	1.479169688853	0
5	311110	1.47943424506	0
5	311137	1.479938745355	0
5	311170	1.480024025355	0
5	311191	1.480125176481	0
5	311218	1.480210456481	0
5	311245	1.480295736481	0
5	311266	1.480381016481	0
5	311281	1.480466296481	0
5	311308	1.480551576481	0
5	311335	1.480636856481	0
5	311374	1.480722136481	0
5	311389	1.480807416481	0
5	311404	1.480892696481	0
5	311425	1.480977976481	0
5	311440	1.481063256481	0
5	311461	1.481148536481	0
5	311482	1.481233816481	0
5	311497	1.481319096481	0
5	311518	1.481404376481	0
5	311533	1.481489656481	0
5	311554	1.481574936481	0
5	311569	1.481660216481	0
5	311596	1.481745496481	0
5	311611	1.481830776481	0
5	311650	1.481916056481	0
5	311665	1.482001336481	0
5	311686	1.482086616481	0
5	311713	1.482171896481	0
5	311728	1.482257176481	0
5	311749	1.482342456481	0
5	311770	1.482427736481	0
5	311785	1.482513016481	0
5	311806	1.482598296481	0
5	311821	1.482683576481	0
5	311836	1.482768856481	0
5	311863	1.482854136481	0
5	311878	1.482939416481	0
5	311893	1.483024696481	0
5	311914	1.483109976481	0
5	311947	1.483245748365	0
5	311974	1.483331028365	0
5	311995	1.483416308365	0
5	312022	1.483501588365	0
5	312037	1.483586868365	0
5	312058	1.483672148365	0
5	312073	1.483757428365	0
5	312100	1.483842708365	0
5	312115	1.483927988365	0
5	312130	1.484013268365	0
5	312145	1.484098548365	0
5	312166	1.484183828365	0
5	312193	1.484338804868	0
5	312214	1.484442952788	0
5	312235	1.484528232788	0
5	312250	1.484613512788	0
5	312277	1.484698792788	0
5	312310	1.484822972562	0
5	312325	1.484908252562	0
5	312358	1.484993532562	0
5	312373	1.485078812562	0
5	312400	1.485164092562	0
5	312421	1.485249372562	0
5	312436	1.485334652562	0
5	312451	1.485419932562	0
5	312466	1.485505212562	0
5	312481	1.485590492562	0
5	312496	1.485675772562	0
5	312523	1.485858099204	0
5	312538	1.485943379204	0
5	312565	1.486157502888	0
5	312586	1.486242782888	0
5	312613	1.486357007817	0
5	312628	1.486473727988	0
5	312643	1.486559007988	0
5	312670	1.486752645855	0
5	312691	1.486869599829	0
5	312712	1.486968727594	0
5	312727	1.487092435191	0
5	312754	1.48731744865	0
5	312769	1.48740272865	0
5	312802	1.487573605662	0
5	312823	1.487658885662	0
5	312844	1.487744165662	0
5	312859	1.487829445662	0
5	312874	1.487914725662	0
5	312907	1.488192160151	0
5	312940	1.488277440151	0
5	312961	1.488362720151	0
5	312976	1.488448000151	0
5	312991	1.488533280151	0
5	313018	1.488618560151	0
5	313039	1.488703840151	0
5	313060	1.488789120151	0
5	313081	1.488874400151	0
5	313102	1.488959680151	0
5	313117	1.489044960151	0
5	313138	1.489130240151	0
5	313159	1.489215520151	0
5	313180	1.489300800151	0
5	313195	1.489386080151	0
5	313210	1.489471360151	0
5	313237	1.489682074211	0
5	313258	1.489841287067	0
5	313273	1.489959089858	0
5	313306	1.490220835584	0
5	313327	1.490306115584	0
5	313342	1.490391395584	0
5	313363	1.490476675584	0
5	313390	1.490618009084	0
5	313411	1.490703289084	0
5	313426	1.490788569084	0
5	313459	1.490873849084	0
5	313480	1.490959666846	0
5	313507	1.491044946846	0
5	313528	1.491130226846	0
5	313543	1.491215506846	0
5	313558	1.491300786846	0
5	313573	1.491386066846	0
5	313588	1.491471346846	0
5	313621	1.491641994097	0
5	313642	1.49173174162	0
5	313675	1.49181702162	0
5	313708	1.49190230162	0
5	313723	1.49198758162	0
5	313744	1.49207286162	0
5	313765	1.49215814162	0
5	313780	1.49224342162	0
5	313795	1.49232870162	0
5	313810	1.49241398162	0
5	313843	1.49249926162	0
5	313858	1.49258454162	0
5	313873	1.49266982162	0
5	313888	1.49275510162	0
5	313921	1.49284038162	0
5	313948	1.492943529739	0
5	313963	1.493028809739	0
5	313996	1.493114089739	0
5	314011	1.493199369739	0
5	314032	1.493284649739	0
5	314047	1.493369929739	0
5	314074	1.493455209739	0
5	314101	1.493540489739	0
5	314122	1.493625769739	0
5	314137	1.493711049739	0
5	314158	1.493796329739	0
5	314179	1.493881609739	0
5	314194	1.493966889739	0
5	314209	1.494052169739	0
5	314230	1.494137449739	0
5	314245	1.494222729739	0
5	314266	1.494308009739	0
5	314299	1.494466275516	0
5	314320	1.494551555516	0
5	314353	1.494636835516	0
5	314374	1.494722115516	0
5	314389	1.494807395516	0
5	314404	1.494892675516	0
5	314419	1.494977955516	0
5	314440	1.495063235516	0
5	314461	1.495148515516	0
5	314488	1.495233795516	0
5	314521	1.495319075516	0
5	314536	1.495404355516	0
5	314551	1.495489635516	0
5	314566	1.495574915516	0
5	314587	1.495660195516	0
5	314602	1.495745475516	0
5	314617	1.495830755516	0
5	314656	1.49600541277	0
5	314677	1.49609069277	0
5	314692	1.49617597277	0
5	314713	1.49626125277	0
5	314728	1.49634653277	0
5	314743	1.49643181277	0
5	314800	1.496607359823	0
5	314815	1.496692639823	0
5	314830	1.496777919823	0
5	314845	1.496863199823	0
5	314860	1.496948479823	0
5	314881	1.497033759823	0
5	314896	1.497119039823	0
5	314911	1.497204319823	0
5	314950	1.497415203744	0
5	314971	1.497500483744	0
5	314992	1.497585763744	0
5	315019	1.497671043744	0
5	315034	1.497756323744	0
5	315061	1.497841603744	0
5	315076	1.497926883744	0
5	315091	1.498012163744	0
5	315106	1.498097443744	0
5	315121	1.498182723744	0
5	315148	1.498395256159	0
5	315175	1.498522509915	0
5	315190	1.498632062849	0
5	315211	1.498717342849	0
5	315232	1.498831940383	0
5	315265	1.498952898669	0
5	315286	1.499053196775	0
5	315301	1.499138476775	0
5	315322	1.499223756775	0
5	315343	1.499309036775	0
5	315358	1.499394316775	0
5	315385	1.499479596775	0
5	315412	1.49961415674	0
5	315433	1.49969943674	0
5	315448	1.49978471674	0
5	315463	1.49986999674	0
5	315478	1.49995527674	0
6	77507	0.37758596833	0.197873890633
6	145981	0.709276280301	0.331934471971
6	158006	0.763569599769	0.054537479468
6	188850	0.904789213901	0.141681173838
6	236104	1.131646471085	0.227451062232
6	254738	1.22177688755	0.090548850067
6	268692	1.283080670358	0.061763351154
7	77507	0.37758596833	0
7	145981	0.709276280301	0
7	158006	0.763569599769	0
7	188850	0.904789213901	0
7	236104	1.131646471085	0
7	254738	1.22177688755	0
7	268692	1.283080670358	0

